
**** 04/12/19 20:02:26 ********* PSpice 9.2 (Mar 2000) ******** ID# 1 ********

 * D:\GIT\MAI\Invertor\Orcad\4_Rele_pit\RNP.sch


 ****     CIRCUIT DESCRIPTION


******************************************************************************




* Schematics Version 9.2
* Fri Apr 12 20:02:26 2019



** Analysis setup **
.tran 0ns 20m 0 1.57u SKIPBP
.LIB "D:\GIT\MAI\Invertor\Orcad\2_Sinus_generator\Sinus_generator.lib"


* From [PSPICE NETLIST] section of d:\Program Files\Orcad\PSpice\PSpice.ini:
.lib "D:\Program Files\Orcad\PSpice\UserLib\OPA_2.lib"
.lib "D:\Program Files\Orcad\PSpice\UserLib\MyLib.lib"
.lib "nom.lib"

.INC "RNP.net"



**** INCLUDING RNP.net ****
* Schematics Netlist *



Q_Q1         $N_0002 $N_0001 $N_0003 Q2N3505
X_U7         $N_0004 0 $N_0005 TL431
V_V5         $N_0006 0 9
Q_Q2         $N_0008 $N_0007 $N_0003 Q2N3505
V_V6         $N_0003 $N_0006  
+SIN 0 7 400 0 0 0
R_R10         $N_0002 $N_0003  2k  
R_R11         $N_0004 $N_0002  9.5k  
R_R12         0 $N_0004  2.5k  
R_R13         $N_0001 $N_0003  10k  
R_R15         $N_0007 $N_0003  10k  
R_R16         $N_0005 $N_0007  10k  
R_R14         $N_0005 $N_0001  10k  
R_R17         0 $N_0008  10k  

**** RESUMING RNP.cir ****
.PROBE V(*) I(*) W(*) D(*) NOISE(*) 


.END

**** 04/12/19 20:02:26 ********* PSpice 9.2 (Mar 2000) ******** ID# 1 ********

 * D:\GIT\MAI\Invertor\Orcad\4_Rele_pit\RNP.sch


 ****     Diode MODEL PARAMETERS


******************************************************************************




               X_U7.DMOD1      X_U7.DMOD2      
          IS   10.000000E-15   10.000000E-15 
          RS     .3             1.000000E-06 


**** 04/12/19 20:02:26 ********* PSpice 9.2 (Mar 2000) ******** ID# 1 ********

 * D:\GIT\MAI\Invertor\Orcad\4_Rele_pit\RNP.sch


 ****     BJT MODEL PARAMETERS


******************************************************************************




               Q2N3505         
               PNP             
          IS  650.600000E-18 
          BF  231.7          
          NF    1            
         VAF  115.7          
         IKF    1.079        
         ISE   54.810000E-15 
          NE    1.829        
          BR    3.563        
          NR    1            
          RB   10            
          RC     .715        
         CJE   19.820000E-12 
         MJE     .3357       
         CJC   14.760000E-12 
         MJC     .5383       
          TF  603.700000E-12 
         XTF    1.7          
         VTF    5            
         ITF     .65         
          TR  111.300000E-09 
         XTB    1.5          
          CN    2.2          
           D     .52         


**** 04/12/19 20:02:26 ********* PSpice 9.2 (Mar 2000) ******** ID# 1 ********

 * D:\GIT\MAI\Invertor\Orcad\4_Rele_pit\RNP.sch


 ****     Resistor MODEL PARAMETERS


******************************************************************************




               X_U7.RMOD       
           R    1            
         TC1   14.000000E-06 
         TC2   -1.000000E-06 



          JOB CONCLUDED

          TOTAL JOB TIME            1.12
