
**** 02/18/19 19:20:04 ********* PSpice 9.2 (Mar 2000) ******** ID# 1 ********

 * C:\Workspace_git\Magistr\Shevtsov\Invertor\Orcad\4_Rele_pit\RNP.sch


 ****     CIRCUIT DESCRIPTION


******************************************************************************




* Schematics Version 9.2
* Mon Feb 18 19:20:02 2019



** Analysis setup **
.tran 0ns 60m 0 1.57u SKIPBP
.LIB "C:\Workspace_git\Magistr\Shevtsov\Invertor\Orcad\2_Sinus_generator\Sinus_generator.lib"


* From [PSPICE NETLIST] section of C:\Program Files\Orcad\PSpice\PSpice.ini:
.lib "C:\Program Files\Orcad\PSpice\UserLib\Mylib.lib"
.lib "nom.lib"
.inc "C:\Program Files\Orcad\PSpice\UserLib\Mylib.lib"


**** INCLUDING Mylib.lib ****
* PSpice Model Editor - Version 9.2

*$
**************************************************************
*****************************************************************************
* TL431 MACROMODEL ***************3-26-92************************************
* REV N/A ****************************************************************DBB
*****************************************************************************
*              REFERENCE
*              |  ANODE
*              |  |  CATHODE
*              |  |  |
.SUBCKT  TL431 1  2  3
V1  6  7  DC  1.4V
I1  2  4  1E-3
R1  1  2  1.2E6
R2  4  2  RMOD 2.495E3
R3  5  7  .2
D1  3  6  DMOD1
D2  2  3  DMOD1
D3  2  7  DMOD2
E1  5  2  POLY(2)  (4,2)  (1,2)  0  710  -710
.MODEL RMOD RES (TC1=1.4E-5 TC2=-1E-6)
.MODEL DMOD1 D (RS=.3)
.MODEL DMOD2 D (RS=1E-6)
.ENDS
*$
*****************************************************************************
* AD633 Analog Multiplier Macro Model 12/93, Rev. A
* AAG/PMI
*
* Copyright 1993 by Analog Devices, Inc.
*
* Refer to "README.DOC" file for License Statement.  Use of this model
* indicates your acceptance with the terms and provisions in the License Statement.
*
* Node assignments
*             X1
*             |  X2
*             |  |  Y1
*             |  |  |  Y2
*             |  |  |  |  VNEG
*             |  |  |  |  |  Z
*             |  |  |  |  |  |  W
*             |  |  |  |  |  |  |  VPOS
*             |  |  |  |  |  |  |  |
.SUBCKT AD633 1  2  3  4  5  6  7  8
*
EREF 100 0 POLY(2) 8 0 5 0 (0,0.5,0.5)
*
* X-INPUT STAGE & POLE AT 15 MHz
*
IBX1 1 0 DC 8E-7
IBX2 2 0 DC 8E-7
EOSX 10 1 POLY(1) (16,100) (5E-3,1)
RX1A 10 11 5E6
RX1B 11 2 5E6
*
GX 100 12 10 2 1E-6
RX 12 100 1E6
CX 12 100 1.061E-14
VX1 8 13 DC 3.05
DX1 12 13 DX
VX2 14 5 DC 3.05
DX2 14 12 DX
*
* COMMON-MODE GAIN NETWORK WITH ZERO AT 560 Hz
*
ECMX 15 100 11 100 10
RCMX1 15 16 1E6
CCMX 15 16 2.8421E-10
RCMX2 16 100 1
*
* Y-INPUT STAGE & POLE AT 15 MHz
*
IBY1 3 0 DC 8E-7
IBY2 4 0 DC 8E-7
EOSY 20 3 POLY(1) (26,100) (5E-3,1)
RY1A 20 21 5E6
RY1B 21 4 5E6
*
GY 100 22 20 4 1E-6
RY 22 100 1E6
CY 22 100 1.061E-14
VY1 8 23 DC 3.05
DY1 22 23 DX
VY2 24 5 DC 3.05
DY2 24 22 DX
*
* COMMON-MODE GAIN NETWORK WITH ZERO AT 560 Hz
*
ECMY 25 100 21 100 10
RCMY1 25 26 1E6
CCMY 25 26 2.8421E-10
RCMY2 26 100 1
*
* Z-INPUT STAGE & POLE AT 15 MHz
*
IBZ1 7 0 DC 8E-7
IBZ2 6 0 DC 8E-7
RZ1 7 6 10E6
*
GZ 100 32 7 6 1E-6
RZ2 32 100 1E6
CZ 32 100 1.061E-14
VZ1 8 33 DC 3.05
DZ1 32 33 DX
VZ2 34 5 DC 3.05
DZ2 34 33 DX
*
* 50-MHz MULTIPLIER CORE & SUMMER
*
GXY 100 40 POLY(2) (12,100) (22,100) (0,0,0,0,0.1E-6)
RXY 40 100 1E6
CXY 40 100 3.1831E-15
*
* OP AMP INPUT STAGE
*
VOOS 59 40 DC 5E-3
Q1 55 32 60 QX
Q2 56 59 61 QX
R1 8 55 3.1831E4
R2 60 54 3.1313E4
R3 8 56 3.1831E4
R4 61 54 3.1313E4
I1 54 5 1E-4
*
* GAIN STAGE & DOMINANT POLE AT 316.23 Hz
*
G1 100 62 55 56 3.141637E-5
R5 62 100 1.0066E8
C3 62 100 5E-12
V1 8 63 DC 4.3399
D1 62 63 DX
V2 64 5 DC 4.3399
D2 64 62 DX
*
* NEGATIVE ZERO AT 20 MHz
*
ENZ 65 100 62 100 1E6
RNZ1 65 66 1
FNZ 65 66 VNC -1
RNZ2 66 100 1E-6
ENC 67 0 65 66 1
CNZ 67 68 7.9577E-9
VNC 68 0 DC 0
*
* POLE AT 4 MHz
*
G2 100 69 66 100 1E-6
R6 69 100 1E6
C2 69 100 3.9789E-14
*
* OP AMP OUTPUT STAGE
*
FSY 8 5 POLY(2) VZC1 VZC2 (2.8286E-3,1,1)
RDC 8 5 28E3
GZC 100 73 72 69 11.623E-3
VZC1 74 100 DC 0
DZC1 73 74 DX
VZC2 100 75 DC 0
DZC2 75 73 DX
VSC1 70 72 0.695
DSC1 69 70 DX
VSC2 72 71 0.695
DSC2 71 69 DX
GO1 72 8 8 69 11.623E-3 
RO1 8 72 86
GO2 5 72 69 5 11.623E-3 
RO2 72 5 86
LO 72 7 1E-7
*
* MODELS USED
*
.MODEL QX NPN(BF=1E4)
.MODEL DX D(IS=1E-15)
.ENDS AD633
*$

**** RESUMING RNP.cir ****
.INC "RNP.net"



**** INCLUDING RNP.net ****
* Schematics Netlist *



R_R11         $N_0002 $N_0001  9.5k  
R_R14         $N_0004 $N_0003  10k  
R_R13         $N_0003 $N_0005  10k  
Q_Q1         $N_0001 $N_0003 $N_0005 Q2N3505
R_R10         $N_0001 $N_0005  2k  
R_R16         $N_0004 $N_0006  10k  
R_R15         $N_0006 $N_0005  10k  
R_R17         0 $N_0007  10k  
X_U7         $N_0002 0 $N_0004 TL431
R_R12         0 $N_0002  2.5k  
V_V5         $N_0008 0 9
Q_Q2         $N_0007 $N_0006 $N_0005 Q2N3505
V_V6         $N_0005 $N_0008  
+SIN 0 7 400 0 0 0

**** RESUMING RNP.cir ****
.PROBE V(*) I(*) W(*) D(*) NOISE(*) 


.END

**** 02/18/19 19:20:04 ********* PSpice 9.2 (Mar 2000) ******** ID# 1 ********

 * C:\Workspace_git\Magistr\Shevtsov\Invertor\Orcad\4_Rele_pit\RNP.sch


 ****     Diode MODEL PARAMETERS


******************************************************************************




               X_U7.DMOD1      X_U7.DMOD2      
          IS   10.000000E-15   10.000000E-15 
          RS     .3             1.000000E-06 


**** 02/18/19 19:20:04 ********* PSpice 9.2 (Mar 2000) ******** ID# 1 ********

 * C:\Workspace_git\Magistr\Shevtsov\Invertor\Orcad\4_Rele_pit\RNP.sch


 ****     BJT MODEL PARAMETERS


******************************************************************************




               Q2N3505         
               PNP             
          IS  650.600000E-18 
          BF  231.7          
          NF    1            
         VAF  115.7          
         IKF    1.079        
         ISE   54.810000E-15 
          NE    1.829        
          BR    3.563        
          NR    1            
          RB   10            
          RC     .715        
         CJE   19.820000E-12 
         MJE     .3357       
         CJC   14.760000E-12 
         MJC     .5383       
          TF  603.700000E-12 
         XTF    1.7          
         VTF    5            
         ITF     .65         
          TR  111.300000E-09 
         XTB    1.5          
          CN    2.2          
           D     .52         


**** 02/18/19 19:20:04 ********* PSpice 9.2 (Mar 2000) ******** ID# 1 ********

 * C:\Workspace_git\Magistr\Shevtsov\Invertor\Orcad\4_Rele_pit\RNP.sch


 ****     Resistor MODEL PARAMETERS


******************************************************************************




               X_U7.RMOD       
           R    1            
         TC1   14.000000E-06 
         TC2   -1.000000E-06 



          JOB CONCLUDED

          TOTAL JOB TIME           12.95
