
**** 04/21/19 22:19:55 ********* PSpice 9.2 (Mar 2000) ******** ID# 1 ********

 * D:\GIT\MAI\Invertor\Orcad\17_Fulovaya\Fulovaya.sch


 ****     CIRCUIT DESCRIPTION


******************************************************************************




* Schematics Version 9.2
* Sun Apr 21 22:19:54 2019



** Analysis setup **
.tran 0ns 5ms 2.5ms 1.57u SKIPBP
.four 400 99 V([V_sence])
.STEP  PARAM Rn LIST 
+ 5, 50, 100, 150, 200, 250, 300, 350, 400, 450, 500
.LIB "D:\GIT\MAI\Invertor\Orcad\1_Power_cascade\1STK.lib"


* From [PSPICE NETLIST] section of d:\Program Files\Orcad\PSpice\PSpice.ini:
.lib "D:\Program Files\Orcad\PSpice\UserLib\OPA_2.lib"
.lib "D:\Program Files\Orcad\PSpice\UserLib\MyLib.lib"
.lib "nom.lib"

.INC "Fulovaya.net"



**** INCLUDING Fulovaya.net ****
* Schematics Netlist *



V_V16         $N_0001 0 15
R_R65         $N_0003 $N_0002  3k  
R_R70         $N_0004 $N_0001  10k  
R_R69         $N_0002 $N_0001  470  
Q_Q10         $N_0005 $N_0002 $N_0001 Q2N3505
M_M9         $N_0006 $N_0005 $N_0001 $N_0001 IRFF9110
R_R89         $N_0007 $N_0001  3k  
R_R66         $N_0009 $N_0008  3k  
Q_Q9         $N_0001 $N_0007 $N_0008 Q2N4014
R_R64         aa $N_0010  10k  
R_R71         $N_0011 $N_0005  100  
Q_Q7         0 $N_0007 $N_0003 Q2N3505
Q_Q6         $N_0007 $N_0004 0 Q2N4014
Q_Q5         $N_0004 $N_0010 0 Q2N4014
R_R68         0 $N_0010  1k  
Q_Q8         $N_0011 $N_0009 0 Q2N4014
R_R67         0 $N_0009  470  
M_M8         $N_0006 $N_0011 0 0 IRFF110
L_L8         $N_0006 $N_0012  10m  
V_V22         $N_0013 0 15
R_R99         $N_0015 $N_0014  3k  
R_R100         $N_0016 $N_0013  10k  
R_R101         $N_0014 $N_0013  470  
Q_Q17         $N_0017 $N_0014 $N_0013 Q2N3505
M_M24         $N_0012 $N_0017 $N_0013 $N_0013 IRFF9110
R_R102         $N_0018 $N_0013  3k  
R_R103         $N_0020 $N_0019  3k  
Q_Q18         $N_0013 $N_0018 $N_0019 Q2N4014
R_R104         bb $N_0021  10k  
R_R105         $N_0022 $N_0017  100  
Q_Q19         0 $N_0018 $N_0015 Q2N3505
Q_Q20         $N_0018 $N_0016 0 Q2N4014
Q_Q21         $N_0016 $N_0021 0 Q2N4014
R_R106         0 $N_0021  1k  
Q_Q22         $N_0022 $N_0020 0 Q2N4014
R_R107         0 $N_0020  470  
M_M25         $N_0012 $N_0022 0 0 IRFF110
L_L10         $N_0023 $N_0024  10m  
M_M12         $N_0025 $N_0023 $N_0024 $N_0024 IRFF110
R_R81         $N_0023 A1+  22  
D_D15         $N_0024 $N_0026 D1N4151 
D_D16         $N_0023 $N_0026 D1N4151 
R_R84         $N_0025 $N_0026  1k  
D_D13         A1- $N_0023 Dbreak 
D_D14         A1- $N_0024 Dbreak 
C_C9         A1- $N_0026  22n  
M_M13         A1+ $N_0025 A1- A1- IRFF110
R_R83         A1- A1+  1k  
L_L11         $N_0027 $N_0028  10m  
M_M18         $N_0029 $N_0027 $N_0028 $N_0028 IRFF110
R_R90         $N_0027 A2+  22  
D_D21         $N_0028 $N_0030 D1N4151 
D_D22         $N_0027 $N_0030 D1N4151 
R_R91         $N_0029 $N_0030  1k  
D_D23         0 $N_0027 Dbreak 
D_D24         0 $N_0028 Dbreak 
C_C11         0 $N_0030  22n  
M_M19         A2+ $N_0029 0 0 IRFF110
R_R92         0 A2+  1k  
L_L12         $N_0031 $N_0032  10m  
M_M20         $N_0033 $N_0031 $N_0032 $N_0032 IRFF110
R_R93         $N_0031 B1+  22  
D_D25         $N_0032 $N_0034 D1N4151 
D_D26         $N_0031 $N_0034 D1N4151 
R_R94         $N_0033 $N_0034  1k  
D_D27         B1- $N_0031 Dbreak 
D_D28         B1- $N_0032 Dbreak 
C_C12         B1- $N_0034  22n  
M_M21         B1+ $N_0033 B1- B1- IRFF110
R_R95         B1- B1+  1k  
L_L13         $N_0035 $N_0036  10m  
M_M22         $N_0037 $N_0035 $N_0036 $N_0036 IRFF110
R_R96         $N_0035 B2+  22  
D_D29         $N_0036 $N_0038 D1N4151 
D_D30         $N_0035 $N_0038 D1N4151 
R_R97         $N_0037 $N_0038  1k  
D_D31         0 $N_0035 Dbreak 
D_D32         0 $N_0036 Dbreak 
C_C13         0 $N_0038  22n  
M_M23         B2+ $N_0037 0 0 IRFF110
R_R98         0 B2+  1k  
X_U2A         $N_0039 $N_0040 +15 -15 $N_0041 TL082
C_C1         $N_0040 0  100p  
R_R5         $N_0039 $N_0041  100k  
R_R38         $N_0043 $N_0042  10k  
X_U14A         $N_0044 $N_0045 +15 -15 $N_0045 TL082
X_U16A         $N_0045 $N_0046 +15 -15 $N_0047 TL082
D_D7         $N_0046 $N_0047 D1N4151 
R_R39         $N_0043 $N_0045  10k  
D_D8         $N_0048 $N_0046 D1N4151 
X_U15A         0 $N_0043 +15 -15 $N_0042 TL082
X_U17A         $N_0042 $N_0046 +15 -15 $N_0048 TL082
R_R40         $N_0049 $N_0046  10k  
R_R4         I_sence $N_0040  1k  
R_R3         $N_0046 $N_0039  1k  
R_R7         $N_0050 +15  10k  
R_R11         0 bb  10k  
X_U3A         $N_0051 $N_0050 +15 -15 bb TL082
R_R8         0 $N_0050  10k  
R_R9         $N_0052 0  10k  
R_R10         -15 $N_0052  10k  
R_R12         0 aa  10k  
X_U4A         $N_0052 $N_0051 +15 -15 aa TL082
C_C2         $N_0051 0  100p  
R_R6         $N_0041 $N_0051  10k  
R_R41         $N_0044 +15  14k  
R_R42         0 $N_0044  1k  
R_R24         A1- $N_0053  33k  
R_R23         B1- $N_0054  32k  
R_R25         $N_0054 $N_0055  5k  
X_U6A         $N_0053 $N_0054 +15 -15 $N_0055 TL082
R_R27         $N_0053 0  5k  
R_R26         $N_0055 $N_0056  220k  
C_C5         $N_0056 $N_0057  2u  
X_U7A         0 $N_0056 +15 -15 $N_0057 TL082
X_U11         $N_0058 0 $N_0058 TL431
R_R34         $N_0058 +15  15k  
R_R35         0 $N_0058  15k  
R_R31         $N_0060 $N_0059  10k  
R_R32         $N_0060 $N_0061  10k  
X_U9A         0 $N_0060 +15 -15 $N_0059 TL082
D_D5         $N_0062 $N_0063 D1N4151 
D_D6         $N_0064 $N_0062 D1N4151 
X_U12A         $N_0058 $N_0061 +15 -15 $N_0061 TL082
X_U10A         $N_0059 $N_0062 +15 -15 $N_0064 TL082
X_U8A         $N_0061 $N_0062 +15 -15 $N_0063 TL082
C_C6         $N_0065 $N_0066  33n  
R_R33         $N_0062 $N_0067  100k  
R_R37         0 $N_0067  22k  
R_R30         0 $N_0066  12.06k  
X_U13A         $N_0067 $N_0065 +15 -15 $N_0068 TL082
R_R29         $N_0065 $N_0068  12.06k  
R_R36         $N_0067 $N_0068  10k  
C_C7         $N_0066 $N_0068  33n  
R_R22         V_sence $N_0069  5k  
R_R20         $N_0071 $N_0070  5k  
X_U5A         0 $N_0071 +15 -15 $N_0070 TL082
R_R19         V_sence $N_0071  50k  
C_C4         $N_0071 $N_0069  220p  
Q_Q1         $N_0073 $N_0072 $N_0074 Q2N3505
R_R43         $N_0073 $N_0074  2k  
V_V4         $N_0074 0 15
R_R46         $N_0072 $N_0074  10k  
R_R47         $N_0075 $N_0074  10k  
R_R48         $N_0076 $N_0075  10k  
R_R49         $N_0076 $N_0072  10k  
Q_Q2         +15 $N_0075 $N_0074 Q2N3505
X_U18         $N_0077 0 $N_0076 TL431
R_R50         0 +15  10k  
R_R44         $N_0077 $N_0073  9.5k  
R_R45         0 $N_0077  2.5k  
Q_Q3         $N_0079 $N_0078 $N_0080 Q2N3505
R_R51         $N_0079 $N_0080  2k  
R_R52         $N_0078 $N_0080  10k  
R_R53         $N_0081 $N_0080  10k  
R_R54         $N_0082 $N_0081  10k  
R_R55         $N_0082 $N_0078  10k  
Q_Q4         -15 $N_0081 $N_0080 Q2N3505
X_U19         $N_0083 0 $N_0082 TL431
R_R56         0 -15  10k  
R_R57         $N_0083 $N_0079  9.5k  
R_R58         0 $N_0083  2.5k  
V_V13         0 $N_0080 15
R_R2         $N_0084 $N_0049  100k  
X_U1A         0 $N_0084 +15 -15 $N_0049 TL082
R_R1         $N_0068 $N_0084  5k  
R_R21         $N_0070 $N_0084  5k  
R_R28         $N_0057 $N_0084  5k  
L_L1         0 I_sence  5H  
R_R15         I_sence 0  33  
D_D1         A1- $N_0085 Dbreak-X 
M_M2         A1- $N_0086 0 0 IRF255
D_D2         0 A1- Dbreak-X 
L_L2         V_sence 0  12mH  
M_M3         $N_0085 $N_0087 B1- B1- IRF255
M_M4         B1- $N_0088 0 0 IRF255
D_D3         0 B1- Dbreak-X 
D_D4         B1- $N_0085 Dbreak-X 
L_L3         $N_0089 B1-  50uH  
L_L4         $N_0090 $N_0089  1mH  
L_L5         A1- $N_0090  5uH  
C_C3         V_sence 0  10u  
M_M1         $N_0085 $N_0091 A1- A1- IRF255
V_V2         $N_0085 0 27
R_R18         V_sence 0  10  
R_R13         $N_0091 A1+  10  
R_R17         $N_0087 B1+  10  
R_R14         $N_0086 B2+  10  
R_R16         $N_0088 B2+  10  

**** RESUMING Fulovaya.cir ****
.PROBE V(*) I(*) W(*) D(*) NOISE(*) 


.END

ERROR -- Undefined parameter: Rn