
**** 04/21/19 17:48:25 ********* PSpice 9.2 (Mar 2000) ******** ID# 1 ********

 * D:\GIT\MAI\Invertor\Orcad\8_W_and_I_on_VT2\1STK.sch


 ****     CIRCUIT DESCRIPTION


******************************************************************************




* Schematics Version 9.2
* Sun Apr 21 17:48:25 2019



** Analysis setup **
.tran 0ns 5m 0 1.57u SKIPBP
.OPTIONS ABSTOL=1uA
.OPTIONS ITL4=60
.LIB "D:\GIT\MAI\Invertor\Orcad\8_W_and_I_on_VT2\1STK.lib"


* From [PSPICE NETLIST] section of d:\Program Files\Orcad\PSpice\PSpice.ini:
.lib "D:\Program Files\Orcad\PSpice\UserLib\OPA_2.lib"
.lib "D:\Program Files\Orcad\PSpice\UserLib\MyLib.lib"
.lib "nom.lib"

.INC "1STK.net"



**** INCLUDING 1STK.net ****
* Schematics Netlist *



V_V1         $N_0001 0 18
Kn_K1         L_L1 L_L2     1
Kn_K2         L_L3 L_L4     1
R_R7         $N_0002 V_correct  5k  
R_R8         V_correct $N_0003  100k  
R_R9         $N_0005 $N_0004  1k  
C_C2         $N_0006 0  100p  
E_LIMIT1         $N_0005 0 VALUE {LIMIT(V($N_0003),-1,1)}
L_L3         $N_0007 $N_0008  1mH  
L_L1         $N_0009 $N_0007  5uH  
L_L5         $N_0008 $N_0010  50uH  
R_R16         $N_0012 $N_0011  10k  
C_C3         $N_0011 0  100p  
R_R12         $N_0013 +15  10k  
R_R13         0 $N_0013  10k  
R_R17         $N_0014 0  10k  
R_R15         -15 $N_0014  10k  
X_U1A         0 V_correct +15 -15 $N_0003 TL082
R_R4         $N_0016 $N_0015  10  
R_R3         $N_0018 $N_0017  10  
R_R18         0 bb  10k  
R_R19         0 aa  10k  
E_E2         $N_0019 0 bb 0 1
E_E1         $N_0020 $N_0009 aa 0 1
E_E3         $N_0017 $N_0010 bb 0 1
E_E4         $N_0015 0 aa 0 1
R_R1         $N_0021 $N_0020  10  
R_R2         $N_0022 $N_0019  10  
V_V5         $N_0002 0  
+SIN 0 5 400 0 0 0
X_U2A         $N_0004 $N_0006 +15 -15 $N_0012 TL082
R_R11         I_sence $N_0006  1k  
R_R6         0 I_sence  33  
L_L4         V_sence 0  12m  
L_L2         0 I_sence  5  
X_U3A         $N_0011 $N_0013 +15 -15 bb TL082
X_U4A         $N_0014 $N_0011 +15 -15 aa TL082
C_C1         V_sence 0  10u  
V_V7         -15 0 -15
V_V6         +15 0 15
R_R5         V_sence 0  10  
R_R22         $N_0023 V_correct  5k  
X_U5A         0 $N_0024 +15 -15 $N_0023 TL082
R_R21         $N_0024 $N_0023  5k  
R_R20         V_sence $N_0024  50k  
R_R23         V_sence $N_0025  5k  
C_C4         $N_0025 $N_0024  220p  
R_R10         $N_0004 $N_0012  100k  
M_M9         $N_0001 $N_0021 $N_0009 $N_0009 IRF540
M_M10         $N_0009 $N_0022 0 0 IRF540
M_M11         $N_0001 $N_0018 $N_0010 $N_0010 IRF540
M_M12         $N_0010 $N_0016 0 0 IRF540
D_D6         $N_0009 $N_0001 Dbreak-X 
D_D7         0 $N_0009 Dbreak-X 
D_D8         0 $N_0010 Dbreak-X 
D_D9         $N_0010 $N_0001 Dbreak-X 

**** RESUMING 1STK.cir ****
.PROBE V(*) I(*) W(*) D(*) NOISE(*) 


.END

**** 04/21/19 17:48:25 ********* PSpice 9.2 (Mar 2000) ******** ID# 1 ********

 * D:\GIT\MAI\Invertor\Orcad\8_W_and_I_on_VT2\1STK.sch


 ****     Diode MODEL PARAMETERS


******************************************************************************




               Dbreak-X        X_U1A.dx        X_U1A.dy        X_U2A.dx        
          IS  100.000000E-12  800.000000E-18  800.000000E-18  800.000000E-18 
          RS     .05            1               1.000000E-03    1            
         CJO  150.000000E-12                   10.000000E-12                 


               X_U2A.dy        X_U3A.dx        X_U3A.dy        X_U4A.dx        
          IS  800.000000E-18  800.000000E-18  800.000000E-18  800.000000E-18 
          RS    1.000000E-03    1               1.000000E-03    1            
         CJO   10.000000E-12                   10.000000E-12                 


               X_U4A.dy        X_U5A.dx        X_U5A.dy        
          IS  800.000000E-18  800.000000E-18  800.000000E-18 
          RS    1.000000E-03    1               1.000000E-03 
         CJO   10.000000E-12                   10.000000E-12 


**** 04/21/19 17:48:25 ********* PSpice 9.2 (Mar 2000) ******** ID# 1 ********

 * D:\GIT\MAI\Invertor\Orcad\8_W_and_I_on_VT2\1STK.sch


 ****     Junction FET MODEL PARAMETERS


******************************************************************************




               X_U1A.jx        X_U2A.jx        X_U3A.jx        X_U4A.jx        
               NJF             NJF             NJF             NJF             
         VTO   -1              -1              -1              -1            
        BETA  984.200000E-06  984.200000E-06  984.200000E-06  984.200000E-06 
          IS    2.500000E-12    2.500000E-12    2.500000E-12    2.500000E-12 


               X_U5A.jx        
               NJF             
         VTO   -1            
        BETA  984.200000E-06 
          IS    2.500000E-12 


**** 04/21/19 17:48:25 ********* PSpice 9.2 (Mar 2000) ******** ID# 1 ********

 * D:\GIT\MAI\Invertor\Orcad\8_W_and_I_on_VT2\1STK.sch


 ****     MOSFET MODEL PARAMETERS


******************************************************************************




               IRF540          
               NMOS            
       LEVEL    3            
           L    2.000000E-06 
           W     .94         
         VTO    3.136        
          KP   20.710000E-06 
       GAMMA    0            
         PHI     .6          
      LAMBDA    0            
          RD     .02252      
          RS     .02134      
          RG    5.557        
         RDS  444.400000E+03 
          IS    2.859000E-12 
          JS    0            
          PB     .8          
        PBSW     .8          
         CBD    2.408000E-09 
          CJ    0            
        CJSW    0            
          TT  142.000000E-09 
        CGSO    1.153000E-09 
        CGDO  445.700000E-12 
        CGBO    0            
         TOX  100.000000E-09 
          XJ    0            
       UCRIT   10.000000E+03 
       DELTA    0            
         ETA    0            
      DIOMOD    1            
         VFB    0            
        LETA    0            
        WETA    0            
          U0    0            
        TEMP    0            
         VDD    0            
       XPART    0            



          JOB CONCLUDED

          TOTAL JOB TIME            3.46
