
**** 04/12/19 19:36:36 ********* PSpice 9.2 (Mar 2000) ******** ID# 1 ********

 * D:\GIT\MAI\Invertor\Orcad\2_Sinus_generator\SG_prec_only.sch


 ****     CIRCUIT DESCRIPTION


******************************************************************************




* Schematics Version 9.2
* Fri Apr 12 19:36:36 2019



** Analysis setup **
.tran 0ns 100m 0 1.57u SKIPBP
.LIB "D:\GIT\MAI\Invertor\Orcad\2_Sinus_generator\Sinus_generator.lib"


* From [PSPICE NETLIST] section of d:\Program Files\Orcad\PSpice\PSpice.ini:
.lib "D:\Program Files\Orcad\PSpice\UserLib\OPA_2.lib"
.lib "D:\Program Files\Orcad\PSpice\UserLib\MyLib.lib"
.lib "nom.lib"

.INC "SG_prec_only.net"



**** INCLUDING SG_prec_only.net ****
* Schematics Netlist *



C_C1         $N_0001 $N_0002  33n  
C_C2         $N_0002 $N_0003  33n  
R_R1         $N_0001 $N_0003  12.06k  
R_R2         0 $N_0002  12.06k  
R_R6         $N_0005 $N_0004  10k  
X_U3A         $N_0006 $N_0007 +15 -15 $N_0008 TL082
X_U6A         0 $N_0005 +15 -15 $N_0004 TL082
R_R7         $N_0005 $N_0006  10k  
D_D4         $N_0007 $N_0008 D1N4151 
D_D5         $N_0009 $N_0007 D1N4151 
R_R5         $N_0007 $N_0010  100k  
X_U4A         $N_0004 $N_0007 +15 -15 $N_0009 TL082
X_U7         $N_0011 0 $N_0011 TL431
X_U5A         $N_0011 $N_0006 +15 -15 $N_0006 TL082
R_R8         $N_0011 +15  15k  
R_R11         0 $N_0011  15k  
V_V2         -15 0 -15V
V_V1         +15 0 15V
X_U1A         $N_0010 $N_0001 +15 -15 $N_0003 TL082
R_R3         $N_0010 $N_0003  10k  
R_R4         0 $N_0010  22k  

**** RESUMING SG_prec_only.cir ****
.PROBE V(*) I(*) W(*) D(*) NOISE(*) 


.END

**** 04/12/19 19:36:36 ********* PSpice 9.2 (Mar 2000) ******** ID# 1 ********

 * D:\GIT\MAI\Invertor\Orcad\2_Sinus_generator\SG_prec_only.sch


 ****     Diode MODEL PARAMETERS


******************************************************************************




               D1N4151         X_U3A.dx        X_U3A.dy        X_U6A.dx        
          IS    2.200000E-09  800.000000E-18  800.000000E-18  800.000000E-18 
           N    1.768                                                        
         ISR    7.832000E-09                                                 
         IKF    8.512000E-03                                                 
          BV   75                                                            
         IBV    5.000000E-06                                                 
          RS     .5927          1               1.000000E-03    1            
          TT    5.771000E-09                                                 
         CJO    1.725000E-12                   10.000000E-12                 
          VJ     .5                                                          
           M     .08882                                                      


               X_U6A.dy        X_U4A.dx        X_U4A.dy        X_U7.DMOD1      
          IS  800.000000E-18  800.000000E-18  800.000000E-18   10.000000E-15 
          RS    1.000000E-03    1               1.000000E-03     .3          
         CJO   10.000000E-12                   10.000000E-12                 


               X_U7.DMOD2      X_U5A.dx        X_U5A.dy        X_U1A.dx        
          IS   10.000000E-15  800.000000E-18  800.000000E-18  800.000000E-18 
          RS    1.000000E-06    1               1.000000E-03    1            
         CJO                                   10.000000E-12                 


               X_U1A.dy        
          IS  800.000000E-18 
          RS    1.000000E-03 
         CJO   10.000000E-12 


**** 04/12/19 19:36:36 ********* PSpice 9.2 (Mar 2000) ******** ID# 1 ********

 * D:\GIT\MAI\Invertor\Orcad\2_Sinus_generator\SG_prec_only.sch


 ****     Junction FET MODEL PARAMETERS


******************************************************************************




               X_U3A.jx        X_U6A.jx        X_U4A.jx        X_U5A.jx        
               NJF             NJF             NJF             NJF             
         VTO   -1              -1              -1              -1            
        BETA  984.200000E-06  984.200000E-06  984.200000E-06  984.200000E-06 
          IS    2.500000E-12    2.500000E-12    2.500000E-12    2.500000E-12 


               X_U1A.jx        
               NJF             
         VTO   -1            
        BETA  984.200000E-06 
          IS    2.500000E-12 


**** 04/12/19 19:36:36 ********* PSpice 9.2 (Mar 2000) ******** ID# 1 ********

 * D:\GIT\MAI\Invertor\Orcad\2_Sinus_generator\SG_prec_only.sch


 ****     Resistor MODEL PARAMETERS


******************************************************************************




               X_U7.RMOD       
           R    1            
         TC1   14.000000E-06 
         TC2   -1.000000E-06 



          JOB CONCLUDED

          TOTAL JOB TIME           17.58
