
**** 04/12/19 18:21:13 ********* PSpice 9.2 (Mar 2000) ******** ID# 1 ********

 * D:\GIT\MAI\Invertor\Orcad\2_Sinus_generator\Sinus_generator.sch


 ****     CIRCUIT DESCRIPTION


******************************************************************************




* Schematics Version 9.2
* Fri Apr 12 18:21:13 2019



** Analysis setup **
.tran 0ns 300m 0 1.57u SKIPBP
.STEP  TEMP LIST 
+ 25, 40
.LIB "D:\GIT\MAI\Invertor\Orcad\2_Sinus_generator\Sinus_generator.lib"


* From [PSPICE NETLIST] section of d:\Program Files\Orcad\PSpice\PSpice.ini:
.lib "D:\Program Files\Orcad\PSpice\UserLib\OPA_2.lib"
.lib "D:\Program Files\Orcad\PSpice\UserLib\MyLib.lib"
.lib "nom.lib"

.INC "Sinus_generator.net"



**** INCLUDING Sinus_generator.net ****
* Schematics Netlist *



X_U1A         $N_0001 $N_0002 +15 -15 $N_0003 TL082
V_V2         -15 0 -15V
V_V1         +15 0 15V
D_D1         $N_0004 0 Dbreak 
C_C1         $N_0002 $N_0005  33n  
C_C2         $N_0005 $N_0003  33n  
R_R3         $N_0001 $N_0003  10k  
D_D3         0 $N_0004 Dbreak 
R_R5         $N_0004 $N_0001  100k  
R_R4         0 $N_0001  20k  
R_R1         $N_0002 $N_0003  12.06k  
R_R2         0 $N_0005  12.06k  

**** RESUMING Sinus_generator.cir ****
.PROBE V(*) I(*) W(*) D(*) NOISE(*) 


.END

**** 04/12/19 18:21:13 ********* PSpice 9.2 (Mar 2000) ******** ID# 1 ********

 * D:\GIT\MAI\Invertor\Orcad\2_Sinus_generator\Sinus_generator.sch


 ****     Diode MODEL PARAMETERS


******************************************************************************




               Dbreak          X_U1A.dx        X_U1A.dy        
          IS  100.000000E-12  800.000000E-18  800.000000E-18 
          RS     .05            1               1.000000E-03 
         CJO  150.000000E-12                   10.000000E-12 


**** 04/12/19 18:21:13 ********* PSpice 9.2 (Mar 2000) ******** ID# 1 ********

 * D:\GIT\MAI\Invertor\Orcad\2_Sinus_generator\Sinus_generator.sch


 ****     Junction FET MODEL PARAMETERS


******************************************************************************




               X_U1A.jx        
               NJF             
         VTO   -1            
        BETA  984.200000E-06 
          IS    2.500000E-12 



          JOB CONCLUDED

          TOTAL JOB TIME           38.44
