
**** 04/21/19 19:40:55 ********* PSpice 9.2 (Mar 2000) ******** ID# 1 ********

 * D:\GIT\MAI\Invertor\Orcad\10_DC_sweep_27v_10-500ohm\test.sch


 ****     CIRCUIT DESCRIPTION


******************************************************************************




* Schematics Version 9.2
* Sun Apr 21 19:40:55 2019


.PARAM         Rn=5 

** Analysis setup **
.tran 0ns 5ms 2.5ms 1.57u SKIPBP
.four 400 99 V([V_sence])
.STEP  PARAM Rn LIST 
+ 5, 50, 100, 150, 200, 250, 300, 350, 400, 450, 500
.LIB "D:\GIT\MAI\Invertor\Orcad\1_Power_cascade\1STK.lib"


* From [PSPICE NETLIST] section of d:\Program Files\Orcad\PSpice\PSpice.ini:
.lib "D:\Program Files\Orcad\PSpice\UserLib\OPA_2.lib"
.lib "D:\Program Files\Orcad\PSpice\UserLib\MyLib.lib"
.lib "nom.lib"

.INC "test.net"



**** INCLUDING test.net ****
* Schematics Netlist *



R_R2         $N_0002 $N_0001  100k  
R_R3         $N_0004 $N_0003  1k  
X_U1A         0 $N_0002 +15 -15 $N_0001 TL082
R_R4         I_sence $N_0005  1k  
X_U2A         $N_0003 $N_0005 +15 -15 $N_0006 TL082
C_C1         $N_0005 0  100p  
R_R5         $N_0003 $N_0006  100k  
R_R6         $N_0006 $N_0007  10k  
R_R14         $N_0009 $N_0008  10  
E_E1         $N_0010 $N_0011 aa 0 1
L_L1         0 I_sence  5H  
R_R15         I_sence 0  33  
D_D1         $N_0011 $N_0012 Dbreak-X 
E_E2         $N_0008 0 bb 0 1
M_M2         $N_0011 $N_0009 0 0 IRF255
D_D2         0 $N_0011 Dbreak-X 
L_L2         V_sence 0  12mH  
M_M3         $N_0012 $N_0014 $N_0013 $N_0013 IRF255
M_M4         $N_0013 $N_0015 0 0 IRF255
E_E3         $N_0016 $N_0013 bb 0 1
E_E4         $N_0017 0 aa 0 1
R_R16         $N_0015 $N_0017  10  
R_R17         $N_0014 $N_0016  10  
D_D3         0 $N_0013 Dbreak-X 
D_D4         $N_0013 $N_0012 Dbreak-X 
L_L3         $N_0018 $N_0013  50uH  
L_L4         $N_0019 $N_0018  1mH  
Kn_K1         L_L5 L_L1     1
Kn_K2         L_L4 L_L2     1
L_L5         $N_0011 $N_0019  5uH  
E_LIMIT1         $N_0004 0 VALUE {LIMIT(V($N_0001),-1,1)}
C_C2         $N_0007 0  100p  
V_V3         -15 0 -15
V_V4         +15 0 15
V_V1         $N_0020 0  
+SIN 0 5 400 0 0 0
R_R7         $N_0021 +15  10k  
R_R8         0 $N_0021  10k  
R_R9         $N_0022 0  10k  
R_R10         -15 $N_0022  10k  
R_R11         0 bb  10k  
X_U3A         $N_0007 $N_0021 +15 -15 bb TL082
R_R12         0 aa  10k  
X_U4A         $N_0022 $N_0007 +15 -15 aa TL082
R_R1         $N_0020 $N_0002  5k  
R_R22         V_sence $N_0023  5k  
R_R21         $N_0024 $N_0002  5k  
R_R20         $N_0025 $N_0024  5k  
X_U5A         0 $N_0025 +15 -15 $N_0024 TL082
R_R19         V_sence $N_0025  50k  
C_C3         V_sence 0  10u  
C_C4         $N_0025 $N_0023  220p  
M_M1         $N_0012 $N_0026 $N_0011 $N_0011 IRF255
R_R13         $N_0026 $N_0010  10  
V_V2         $N_0012 0 27
R_R18         V_sence 0  {Rn}  

**** RESUMING test.cir ****
.PROBE V(*) I(*) W(*) D(*) NOISE(*) 


.END

**** 04/21/19 19:40:55 ********* PSpice 9.2 (Mar 2000) ******** ID# 1 ********

 * D:\GIT\MAI\Invertor\Orcad\10_DC_sweep_27v_10-500ohm\test.sch


 ****     Diode MODEL PARAMETERS


******************************************************************************




               Dbreak-X        X_U1A.dx        X_U1A.dy        X_U2A.dx        
          IS  100.000000E-12  800.000000E-18  800.000000E-18  800.000000E-18 
          RS     .05            1               1.000000E-03    1            
         CJO  150.000000E-12                   10.000000E-12                 


               X_U2A.dy        X_U3A.dx        X_U3A.dy        X_U4A.dx        
          IS  800.000000E-18  800.000000E-18  800.000000E-18  800.000000E-18 
          RS    1.000000E-03    1               1.000000E-03    1            
         CJO   10.000000E-12                   10.000000E-12                 


               X_U4A.dy        X_U5A.dx        X_U5A.dy        
          IS  800.000000E-18  800.000000E-18  800.000000E-18 
          RS    1.000000E-03    1               1.000000E-03 
         CJO   10.000000E-12                   10.000000E-12 


**** 04/21/19 19:40:55 ********* PSpice 9.2 (Mar 2000) ******** ID# 1 ********

 * D:\GIT\MAI\Invertor\Orcad\10_DC_sweep_27v_10-500ohm\test.sch


 ****     Junction FET MODEL PARAMETERS


******************************************************************************




               X_U1A.jx        X_U2A.jx        X_U3A.jx        X_U4A.jx        
               NJF             NJF             NJF             NJF             
         VTO   -1              -1              -1              -1            
        BETA  984.200000E-06  984.200000E-06  984.200000E-06  984.200000E-06 
          IS    2.500000E-12    2.500000E-12    2.500000E-12    2.500000E-12 


               X_U5A.jx        
               NJF             
         VTO   -1            
        BETA  984.200000E-06 
          IS    2.500000E-12 


**** 04/21/19 19:40:55 ********* PSpice 9.2 (Mar 2000) ******** ID# 1 ********

 * D:\GIT\MAI\Invertor\Orcad\10_DC_sweep_27v_10-500ohm\test.sch


 ****     MOSFET MODEL PARAMETERS


******************************************************************************




               IRF255          
               NMOS            
       LEVEL    3            
           L    2.000000E-06 
           W   28            
         VTO    3.686        
          KP    1.040000E-06 
       GAMMA    0            
         PHI     .6          
      LAMBDA    0            
          RD    1.000000E-03 
          RS     .01         
          RG    7.008        
          RB    6.906000E-03 
         RDS    1.000000E+06 
          IS  562.200000E-09 
          JS    0            
           N    1.833        
          PB    2.532        
        PBSW    2.532        
         CBD    5.886000E-09 
          CJ    0            
        CJSW    0            
          MJ    1.089        
        CGSO   43.180000E-12 
        CGDO    7.890000E-12 
        CGBO    0            
         TOX    2.000000E-06 
          XJ    0            
       UCRIT   10.000000E+03 
       DELTA    0            
         ETA    0            
      DIOMOD    1            
         VFB    0            
        LETA    0            
        WETA    0            
          U0    0            
        TEMP    0            
         VDD    0            
       XPART    0            


**** 04/21/19 19:40:55 ********* PSpice 9.2 (Mar 2000) ******** ID# 1 ********

 * D:\GIT\MAI\Invertor\Orcad\10_DC_sweep_27v_10-500ohm\test.sch


 ****     FOURIER ANALYSIS                 TEMPERATURE =   27.000 DEG C

 ****     CURRENT STEP                     PARAM RN =    5     


******************************************************************************



FOURIER COMPONENTS OF TRANSIENT RESPONSE V(V_sence)



 DC COMPONENT =  -1.498779E+00

 HARMONIC   FREQUENCY    FOURIER    NORMALIZED    PHASE        NORMALIZED
    NO         (HZ)     COMPONENT    COMPONENT    (DEG)       PHASE (DEG)

     1     4.000E+02    4.290E+01    1.000E+00   -1.403E+00    0.000E+00
     2     8.000E+02    2.055E+00    4.789E-02    7.452E+01    7.732E+01
     3     1.200E+03    2.715E+00    6.327E-02   -2.217E+01   -1.796E+01
     4     1.600E+03    7.641E-01    1.781E-02   -1.269E+02   -1.213E+02
     5     2.000E+03    9.132E-01    2.128E-02    1.334E+02    1.405E+02
     6     2.400E+03    1.661E-01    3.871E-03   -1.119E+02   -1.034E+02
     7     2.800E+03    1.086E-01    2.531E-03   -1.570E+02   -1.472E+02
     8     3.200E+03    2.589E-01    6.036E-03    2.053E+01    3.175E+01
     9     3.600E+03    9.545E-02    2.225E-03   -7.134E+01   -5.872E+01
    10     4.000E+03    1.284E-01    2.994E-03    1.520E+02    1.661E+02
    11     4.400E+03    7.034E-02    1.640E-03   -2.585E+01   -1.042E+01
    12     4.800E+03    5.722E-02    1.334E-03   -1.698E+02   -1.529E+02
    13     5.200E+03    5.437E-02    1.267E-03    6.101E+01    7.924E+01
    14     5.600E+03    7.301E-02    1.702E-03   -2.537E+01   -5.730E+00
    15     6.000E+03    3.818E-02    8.900E-04    1.677E+02    1.887E+02
    16     6.400E+03    4.091E-02    9.536E-04    4.863E+01    7.108E+01
    17     6.800E+03    6.400E-02    1.492E-03   -9.085E+01   -6.700E+01
    18     7.200E+03    6.508E-02    1.517E-03    4.013E+01    6.538E+01
    19     7.600E+03    3.625E-02    8.449E-04   -1.364E+01    1.302E+01
    20     8.000E+03    4.969E-02    1.158E-03   -1.347E+02   -1.066E+02
    21     8.400E+03    5.326E-02    1.241E-03    7.927E+01    1.087E+02
    22     8.800E+03    3.803E-02    8.865E-04    1.590E+02    1.899E+02
    23     9.200E+03    8.879E-02    2.070E-03   -1.620E+02   -1.297E+02
    24     9.600E+03    2.796E-01    6.517E-03   -1.491E+01    1.876E+01
    25     1.000E+04    2.450E-01    5.711E-03    3.471E+01    6.979E+01
    26     1.040E+04    3.365E-01    7.845E-03    1.477E+02    1.841E+02
    27     1.080E+04    6.094E-01    1.421E-02   -1.263E+02   -8.845E+01
    28     1.120E+04    1.954E-01    4.556E-03   -9.144E+01   -5.216E+01
    29     1.160E+04    1.058E+00    2.466E-02    5.525E+01    9.594E+01
    30     1.200E+04    3.329E-01    7.759E-03    9.945E+00    5.203E+01
    31     1.240E+04    1.000E+00    2.332E-02   -1.254E+02   -8.188E+01
    32     1.280E+04    3.322E-01    7.743E-03    1.615E+02    2.064E+02
    33     1.320E+04    2.488E-01    5.798E-03    5.055E+01    9.684E+01
    34     1.360E+04    8.709E-02    2.030E-03   -8.044E+01   -3.275E+01
    35     1.400E+04    3.899E-01    9.088E-03    5.443E+01    1.035E+02
    36     1.440E+04    1.290E-01    3.006E-03    6.210E+01    1.126E+02
    37     1.480E+04    2.842E-01    6.625E-03   -1.352E+02   -8.331E+01
    38     1.520E+04    9.318E-02    2.172E-03   -2.919E+01    2.412E+01
    39     1.560E+04    3.135E-01    7.306E-03   -1.363E+02   -8.156E+01
    40     1.600E+04    9.554E-02    2.227E-03   -8.983E+01   -3.371E+01
    41     1.640E+04    1.896E-01    4.420E-03    5.773E+01    1.152E+02
    42     1.680E+04    1.924E-01    4.485E-03    1.480E+02    2.069E+02
    43     1.720E+04    2.901E-01    6.762E-03    5.712E+01    1.174E+02
    44     1.760E+04    1.754E-01    4.088E-03    1.383E+02    2.001E+02
    45     1.800E+04    3.240E-02    7.551E-04   -7.747E+01   -1.435E+01
    46     1.840E+04    1.214E-01    2.830E-03   -1.667E+01    4.786E+01
    47     1.880E+04    2.519E-01    5.871E-03   -9.847E+01   -3.254E+01
    48     1.920E+04    2.701E-01    6.296E-03   -1.835E+01    4.899E+01
    49     1.960E+04    2.238E-01    5.217E-03   -8.011E+01   -1.136E+01
    50     2.000E+04    1.382E-01    3.222E-03    3.035E+00    7.318E+01
    51     2.040E+04    1.331E-01    3.102E-03   -4.917E+01    2.237E+01
    52     2.080E+04    3.004E-02    7.002E-04    8.569E+01    1.586E+02
    53     2.120E+04    1.571E-01    3.663E-03    4.455E+01    1.189E+02
    54     2.160E+04    2.350E-01    5.478E-03    1.738E+02    2.496E+02
    55     2.200E+04    4.710E-02    1.098E-03    9.583E+01    1.730E+02
    56     2.240E+04    1.371E-01    3.196E-03   -1.611E+02   -8.253E+01
    57     2.280E+04    2.103E-01    4.902E-03    7.692E+01    1.569E+02
    58     2.320E+04    1.664E-01    3.877E-03    1.761E+02    2.575E+02
    59     2.360E+04    5.860E-02    1.366E-03   -9.640E+01   -1.363E+01
    60     2.400E+04    2.081E-01    4.851E-03   -1.621E+02   -7.797E+01
    61     2.440E+04    1.439E-01    3.355E-03    1.015E+02    1.871E+02
    62     2.480E+04    1.746E-02    4.070E-04    1.768E+02    2.638E+02
    63     2.520E+04    6.841E-03    1.595E-04    1.727E+01    1.057E+02
    64     2.560E+04    1.117E-01    2.604E-03    1.619E+02    2.517E+02
    65     2.600E+04    5.504E-02    1.283E-03   -1.116E+02   -2.045E+01
    66     2.640E+04    6.786E-02    1.582E-03   -1.722E+02   -7.958E+01
    67     2.680E+04    3.511E-02    8.184E-04    1.441E+02    2.381E+02
    68     2.720E+04    3.920E-02    9.137E-04    1.560E+02    2.514E+02
    69     2.760E+04    2.479E-02    5.779E-04    9.950E+01    1.963E+02
    70     2.800E+04    5.478E-02    1.277E-03    1.269E+02    2.251E+02
    71     2.840E+04    4.849E-02    1.130E-03   -1.196E+02   -1.998E+01
    72     2.880E+04    1.226E-02    2.858E-04    1.658E+02    2.668E+02
    73     2.920E+04    3.637E-02    8.477E-04   -1.358E+02   -3.343E+01
    74     2.960E+04    2.329E-02    5.428E-04   -1.527E+02   -4.887E+01
    75     3.000E+04    2.668E-02    6.220E-04    1.091E+02    2.143E+02
    76     3.040E+04    3.731E-02    8.696E-04    1.503E+02    2.569E+02
    77     3.080E+04    1.614E-02    3.763E-04    1.422E+02    2.502E+02
    78     3.120E+04    1.803E-02    4.202E-04    1.123E+02    2.217E+02
    79     3.160E+04    3.350E-02    7.809E-04   -1.191E+02   -8.297E+00
    80     3.200E+04    3.563E-02    8.304E-04   -2.008E+01    9.215E+01
    81     3.240E+04    9.700E-03    2.261E-04    1.142E+02    2.279E+02
    82     3.280E+04    3.060E-02    7.133E-04   -1.518E+02   -3.679E+01
    83     3.320E+04    2.369E-03    5.521E-05   -1.153E+02    1.116E+00
    84     3.360E+04    2.691E-02    6.273E-04    1.662E+02    2.840E+02
    85     3.400E+04    1.946E-02    4.537E-04    9.997E+01    2.192E+02
    86     3.440E+04    2.463E-02    5.740E-04    1.490E+02    2.697E+02
    87     3.480E+04    2.410E-02    5.618E-04   -9.578E+01    2.627E+01
    88     3.520E+04    2.649E-02    6.175E-04    1.175E+01    1.352E+02
    89     3.560E+04    1.076E-02    2.507E-04    1.657E+02    2.905E+02
    90     3.600E+04    3.392E-02    7.906E-04    1.450E+01    1.408E+02
    91     3.640E+04    1.039E-02    2.421E-04    1.212E+01    1.398E+02
    92     3.680E+04    2.484E-02    5.790E-04   -1.323E+02   -3.275E+00
    93     3.720E+04    1.117E-02    2.604E-04   -1.456E+02   -1.516E+01
    94     3.760E+04    2.603E-02    6.068E-04   -1.388E+02   -6.917E+00
    95     3.800E+04    9.957E-03    2.321E-04   -1.754E+02   -4.208E+01
    96     3.840E+04    1.784E-02    4.159E-04   -1.512E+02   -1.654E+01
    97     3.880E+04    1.199E-03    2.795E-05    2.103E+01    1.571E+02
    98     3.920E+04    8.285E-03    1.931E-04    1.261E+02    2.636E+02
    99     3.960E+04    7.091E-03    1.653E-04   -1.349E+02    3.982E+00


     TOTAL HARMONIC DISTORTION =   9.704210E+00 PERCENT

**** 04/21/19 19:40:55 ********* PSpice 9.2 (Mar 2000) ******** ID# 1 ********

 * D:\GIT\MAI\Invertor\Orcad\10_DC_sweep_27v_10-500ohm\test.sch


 ****     FOURIER ANALYSIS                 TEMPERATURE =   27.000 DEG C

 ****     CURRENT STEP                     PARAM RN =   50    


******************************************************************************



FOURIER COMPONENTS OF TRANSIENT RESPONSE V(V_sence)



 DC COMPONENT =  -4.202511E-01

 HARMONIC   FREQUENCY    FOURIER    NORMALIZED    PHASE        NORMALIZED
    NO         (HZ)     COMPONENT    COMPONENT    (DEG)       PHASE (DEG)

     1     4.000E+02    4.805E+01    1.000E+00   -1.440E+00    0.000E+00
     2     8.000E+02    2.527E-01    5.259E-03    6.131E+01    6.419E+01
     3     1.200E+03    1.468E-01    3.056E-03   -1.648E+01   -1.216E+01
     4     1.600E+03    4.699E-02    9.779E-04   -3.724E+01   -3.148E+01
     5     2.000E+03    2.800E-02    5.829E-04   -1.293E+02   -1.221E+02
     6     2.400E+03    2.056E-02    4.280E-04   -1.488E+02   -1.401E+02
     7     2.800E+03    1.291E-02    2.686E-04   -1.061E+02   -9.597E+01
     8     3.200E+03    4.852E-03    1.010E-04   -4.622E+01   -3.469E+01
     9     3.600E+03    1.106E-02    2.302E-04   -5.521E+01   -4.224E+01
    10     4.000E+03    1.110E-02    2.311E-04   -6.078E+01   -4.638E+01
    11     4.400E+03    7.891E-03    1.642E-04    1.366E+02    1.524E+02
    12     4.800E+03    1.512E-02    3.146E-04   -4.942E+01   -3.213E+01
    13     5.200E+03    9.254E-03    1.926E-04    1.799E+02    1.987E+02
    14     5.600E+03    4.465E-03    9.294E-05    1.441E+02    1.643E+02
    15     6.000E+03    5.861E-03    1.220E-04   -1.115E+02   -8.987E+01
    16     6.400E+03    2.007E-02    4.178E-04   -4.377E+01   -2.072E+01
    17     6.800E+03    1.341E-02    2.791E-04   -6.787E+01   -4.338E+01
    18     7.200E+03    6.263E-03    1.303E-04   -1.141E+02   -8.820E+01
    19     7.600E+03    1.646E-02    3.426E-04   -4.549E+01   -1.812E+01
    20     8.000E+03    2.204E-02    4.588E-04   -1.120E+02   -8.323E+01
    21     8.400E+03    1.311E-02    2.730E-04   -1.664E+02   -1.361E+02
    22     8.800E+03    1.398E-02    2.909E-04   -9.894E+01   -6.725E+01
    23     9.200E+03    6.931E-03    1.443E-04   -3.859E+01   -5.456E+00
    24     9.600E+03    1.081E-02    2.250E-04   -1.046E+02   -7.008E+01
    25     1.000E+04    2.195E-02    4.568E-04   -6.224E+01   -2.623E+01
    26     1.040E+04    3.463E-02    7.208E-04   -9.982E+01   -6.237E+01
    27     1.080E+04    8.490E-02    1.767E-03    1.619E+02    2.008E+02
    28     1.120E+04    1.344E-01    2.797E-03    5.905E+01    9.939E+01
    29     1.160E+04    2.258E-01    4.700E-03   -3.700E+01    4.779E+00
    30     1.200E+04    3.104E-01    6.461E-03   -1.292E+02   -8.601E+01
    31     1.240E+04    3.635E-01    7.565E-03    1.388E+02    1.834E+02
    32     1.280E+04    4.251E-01    8.848E-03    4.270E+01    8.880E+01
    33     1.320E+04    4.593E-01    9.560E-03   -5.089E+01   -3.352E+00
    34     1.360E+04    4.362E-01    9.080E-03   -1.446E+02   -9.561E+01
    35     1.400E+04    3.046E-01    6.341E-03    1.059E+02    1.563E+02
    36     1.440E+04    9.880E-02    2.056E-03   -1.353E+01    3.832E+01
    37     1.480E+04    1.911E-01    3.978E-03    1.448E+02    1.981E+02
    38     1.520E+04    3.236E-01    6.735E-03   -1.355E+01    4.119E+01
    39     1.560E+04    3.470E-01    7.223E-03   -7.472E+01   -1.854E+01
    40     1.600E+04    2.568E-01    5.346E-03    1.049E+02    1.625E+02
    41     1.640E+04    2.479E-01    5.159E-03   -1.568E+02   -9.772E+01
    42     1.680E+04    3.415E-01    7.107E-03   -1.565E+02   -9.603E+01
    43     1.720E+04    4.491E-01    9.347E-03    4.588E+00    6.653E+01
    44     1.760E+04    2.359E-01    4.909E-03    9.782E+01    1.612E+02
    45     1.800E+04    1.355E-01    2.821E-03    3.931E+01    1.041E+02
    46     1.840E+04    1.485E-01    3.090E-03   -9.994E+01   -3.367E+01
    47     1.880E+04    8.205E-02    1.708E-03    1.464E+02    2.141E+02
    48     1.920E+04    4.770E-01    9.928E-03   -1.156E+02   -4.646E+01
    49     1.960E+04    1.324E-01    2.755E-03   -3.228E+00    6.735E+01
    50     2.000E+04    2.413E-01    5.023E-03   -1.411E+02   -6.912E+01
    51     2.040E+04    2.135E-01    4.444E-03    1.546E+01    8.893E+01
    52     2.080E+04    1.807E-01    3.761E-03    1.146E+02    1.895E+02
    53     2.120E+04    1.764E-01    3.671E-03    5.056E+01    1.269E+02
    54     2.160E+04    2.387E-01    4.968E-03    9.083E+01    1.686E+02
    55     2.200E+04    1.428E-01    2.972E-03    7.905E+01    1.583E+02
    56     2.240E+04    1.780E-01    3.704E-03    7.882E+01    1.595E+02
    57     2.280E+04    9.113E-02    1.897E-03    8.614E+01    1.682E+02
    58     2.320E+04    8.952E-02    1.863E-03    7.854E+01    1.621E+02
    59     2.360E+04    9.588E-02    1.996E-03    8.932E+01    1.743E+02
    60     2.400E+04    7.620E-02    1.586E-03    4.162E+01    1.280E+02
    61     2.440E+04    8.931E-03    1.859E-04   -4.050E+01    4.737E+01
    62     2.480E+04    5.661E-02    1.178E-03    1.546E+02    2.439E+02
    63     2.520E+04    8.873E-02    1.847E-03    8.621E+01    1.770E+02
    64     2.560E+04    6.696E-02    1.394E-03   -1.890E+00    9.030E+01
    65     2.600E+04    4.731E-02    9.848E-04   -1.098E+02   -1.617E+01
    66     2.640E+04    5.624E-02    1.170E-03    1.510E+02    2.460E+02
    67     2.680E+04    4.389E-02    9.136E-04    6.834E+01    1.649E+02
    68     2.720E+04    1.192E-02    2.482E-04    2.762E+01    1.256E+02
    69     2.760E+04    2.425E-02    5.048E-04    7.521E+01    1.746E+02
    70     2.800E+04    2.760E-02    5.745E-04   -1.588E+01    8.495E+01
    71     2.840E+04    3.001E-02    6.246E-04   -1.404E+02   -3.808E+01
    72     2.880E+04    4.147E-02    8.631E-04    1.180E+02    2.217E+02
    73     2.920E+04    2.667E-02    5.550E-04    3.202E+01    1.372E+02
    74     2.960E+04    1.489E-02    3.099E-04    1.050E+02    2.116E+02
    75     3.000E+04    2.946E-02    6.132E-04    4.213E+01    1.502E+02
    76     3.040E+04    3.490E-02    7.264E-04   -7.638E+01    3.310E+01
    77     3.080E+04    1.533E-02    3.190E-04    1.421E+02    2.530E+02
    78     3.120E+04    2.681E-02    5.579E-04    7.135E+01    1.837E+02
    79     3.160E+04    4.092E-02    8.517E-04    1.597E+02    2.735E+02
    80     3.200E+04    8.102E-03    1.686E-04    3.041E+01    1.457E+02
    81     3.240E+04    5.001E-02    1.041E-03   -2.082E+01    9.585E+01
    82     3.280E+04    4.535E-02    9.438E-04    6.339E+01    1.815E+02
    83     3.320E+04    2.515E-02    5.234E-04    1.631E+02    2.827E+02
    84     3.360E+04    5.075E-02    1.056E-03   -1.358E+02   -1.481E+01
    85     3.400E+04    2.491E-02    5.185E-04   -1.477E+01    1.077E+02
    86     3.440E+04    2.738E-02    5.698E-04    9.784E+01    2.217E+02
    87     3.480E+04    2.272E-02    4.729E-04    8.795E+01    2.133E+02
    88     3.520E+04    2.192E-02    4.563E-04    2.555E+01    1.523E+02
    89     3.560E+04    1.983E-02    4.128E-04    1.089E+02    2.371E+02
    90     3.600E+04    2.740E-02    5.702E-04   -1.173E+02    1.238E+01
    91     3.640E+04    2.801E-02    5.830E-04   -1.664E+01    1.144E+02
    92     3.680E+04    9.255E-03    1.926E-04   -2.133E+01    1.112E+02
    93     3.720E+04    1.486E-02    3.092E-04   -1.466E+02   -1.267E+01
    94     3.760E+04    3.164E-02    6.586E-04    8.982E+01    2.252E+02
    95     3.800E+04    3.407E-02    7.090E-04    1.104E+02    2.473E+02
    96     3.840E+04    1.196E-02    2.489E-04   -8.767E+01    5.062E+01
    97     3.880E+04    9.843E-03    2.049E-04    1.445E+02    2.842E+02
    98     3.920E+04    6.123E-03    1.274E-04   -1.472E+02   -6.064E+00
    99     3.960E+04    2.839E-02    5.908E-04   -2.142E+01    1.212E+02


     TOTAL HARMONIC DISTORTION =   3.287000E+00 PERCENT

**** 04/21/19 19:40:55 ********* PSpice 9.2 (Mar 2000) ******** ID# 1 ********

 * D:\GIT\MAI\Invertor\Orcad\10_DC_sweep_27v_10-500ohm\test.sch


 ****     FOURIER ANALYSIS                 TEMPERATURE =   27.000 DEG C

 ****     CURRENT STEP                     PARAM RN =  100   


******************************************************************************



FOURIER COMPONENTS OF TRANSIENT RESPONSE V(V_sence)



 DC COMPONENT =  -3.040299E-01

 HARMONIC   FREQUENCY    FOURIER    NORMALIZED    PHASE        NORMALIZED
    NO         (HZ)     COMPONENT    COMPONENT    (DEG)       PHASE (DEG)

     1     4.000E+02    4.832E+01    1.000E+00   -1.403E+00    0.000E+00
     2     8.000E+02    1.450E-01    3.000E-03    2.773E+01    3.053E+01
     3     1.200E+03    1.189E-01    2.461E-03   -4.492E+01   -4.071E+01
     4     1.600E+03    1.265E-02    2.617E-04   -1.500E+02   -1.444E+02
     5     2.000E+03    8.320E-03    1.722E-04    7.340E+01    8.042E+01
     6     2.400E+03    4.933E-03    1.021E-04    1.013E+02    1.097E+02
     7     2.800E+03    1.481E-02    3.065E-04   -1.772E+02   -1.674E+02
     8     3.200E+03    4.986E-03    1.032E-04    8.564E+01    9.687E+01
     9     3.600E+03    1.337E-02    2.767E-04   -5.653E+01   -4.390E+01
    10     4.000E+03    7.251E-03    1.501E-04    1.752E+02    1.892E+02
    11     4.400E+03    1.755E-02    3.633E-04   -1.136E+02   -9.818E+01
    12     4.800E+03    1.618E-02    3.348E-04   -1.066E+02   -8.975E+01
    13     5.200E+03    1.485E-02    3.072E-04   -1.779E+02   -1.596E+02
    14     5.600E+03    1.213E-02    2.510E-04   -3.973E+01   -2.009E+01
    15     6.000E+03    3.815E-03    7.896E-05    1.626E+02    1.837E+02
    16     6.400E+03    4.754E-03    9.838E-05   -8.607E+01   -6.362E+01
    17     6.800E+03    2.075E-02    4.294E-04   -5.595E+01   -3.209E+01
    18     7.200E+03    6.811E-03    1.410E-04    7.038E+01    9.564E+01
    19     7.600E+03    1.228E-02    2.541E-04   -1.672E+02   -1.406E+02
    20     8.000E+03    3.108E-02    6.432E-04   -1.129E+02   -8.487E+01
    21     8.400E+03    1.725E-02    3.569E-04   -1.279E+01    1.668E+01
    22     8.800E+03    4.954E-03    1.025E-04    1.858E+01    4.945E+01
    23     9.200E+03    1.569E-02    3.248E-04   -1.682E+02   -1.359E+02
    24     9.600E+03    2.015E-02    4.169E-04   -7.904E+01   -4.536E+01
    25     1.000E+04    1.203E-02    2.491E-04   -8.363E+01   -4.854E+01
    26     1.040E+04    1.885E-02    3.901E-04   -1.606E+02   -1.241E+02
    27     1.080E+04    5.601E-03    1.159E-04   -1.328E+02   -9.493E+01
    28     1.120E+04    3.907E-03    8.086E-05   -5.531E+01   -1.602E+01
    29     1.160E+04    2.885E-02    5.970E-04   -9.334E+01   -5.264E+01
    30     1.200E+04    5.021E-02    1.039E-03   -1.621E+02   -1.200E+02
    31     1.240E+04    6.655E-02    1.377E-03    8.508E+01    1.286E+02
    32     1.280E+04    1.121E-01    2.319E-03   -3.663E+01    8.276E+00
    33     1.320E+04    1.811E-01    3.749E-03   -1.264E+02   -8.008E+01
    34     1.360E+04    2.357E-01    4.879E-03    1.264E+02    1.741E+02
    35     1.400E+04    3.074E-01    6.361E-03    2.126E+01    7.038E+01
    36     1.440E+04    3.898E-01    8.068E-03   -8.254E+01   -3.202E+01
    37     1.480E+04    4.561E-01    9.440E-03    1.759E+02    2.279E+02
    38     1.520E+04    2.213E-01    4.579E-03    6.634E+01    1.197E+02
    39     1.560E+04    3.046E-01    6.304E-03   -3.430E+01    2.043E+01
    40     1.600E+04    1.925E-01    3.985E-03    7.948E+01    1.356E+02
    41     1.640E+04    1.132E-01    2.343E-03   -1.648E+02   -1.073E+02
    42     1.680E+04    5.498E-01    1.138E-02   -1.403E+02   -8.132E+01
    43     1.720E+04    2.483E-01    5.138E-03    9.128E+00    6.947E+01
    44     1.760E+04    2.029E-01    4.199E-03    2.939E+01    9.113E+01
    45     1.800E+04    2.693E-01    5.574E-03    9.972E+01    1.629E+02
    46     1.840E+04    3.478E-01    7.198E-03   -4.537E+01    1.919E+01
    47     1.880E+04    2.927E-01    6.057E-03    1.383E+02    2.043E+02
    48     1.920E+04    4.696E-01    9.718E-03   -1.032E+02   -3.585E+01
    49     1.960E+04    1.182E-01    2.446E-03    1.591E+02    2.279E+02
    50     2.000E+04    2.432E-01    5.034E-03   -1.252E+02   -5.499E+01
    51     2.040E+04    8.067E-02    1.670E-03    4.329E+01    1.149E+02
    52     2.080E+04    9.176E-02    1.899E-03    5.932E+01    1.323E+02
    53     2.120E+04    1.866E-01    3.862E-03    4.444E+01    1.188E+02
    54     2.160E+04    2.027E-01    4.194E-03    4.888E+01    1.247E+02
    55     2.200E+04    1.817E-01    3.761E-03    4.931E+01    1.265E+02
    56     2.240E+04    1.599E-01    3.310E-03    5.134E+01    1.299E+02
    57     2.280E+04    1.195E-01    2.474E-03    5.425E+01    1.342E+02
    58     2.320E+04    9.879E-02    2.044E-03    5.866E+01    1.401E+02
    59     2.360E+04    6.701E-02    1.387E-03    5.380E+01    1.366E+02
    60     2.400E+04    6.024E-02    1.247E-03    5.488E+01    1.391E+02
    61     2.440E+04    4.212E-02    8.717E-04    6.115E+01    1.468E+02
    62     2.480E+04    3.145E-02    6.510E-04    4.130E+01    1.283E+02
    63     2.520E+04    2.690E-02    5.566E-04    1.883E+01    1.072E+02
    64     2.560E+04    1.615E-02    3.342E-04    4.149E+01    1.313E+02
    65     2.600E+04    2.357E-02    4.878E-04    6.191E+01    1.531E+02
    66     2.640E+04    3.237E-02    6.699E-04    1.143E+01    1.041E+02
    67     2.680E+04    1.935E-02    4.005E-04   -6.122E+01    3.281E+01
    68     2.720E+04    2.838E-02    5.874E-04    1.298E+02    2.253E+02
    69     2.760E+04    5.300E-02    1.097E-03    4.564E+01    1.425E+02
    70     2.800E+04    4.962E-02    1.027E-03   -3.678E+01    6.145E+01
    71     2.840E+04    4.092E-02    8.468E-04   -1.597E+02   -6.010E+01
    72     2.880E+04    6.076E-02    1.258E-03    9.025E+01    1.913E+02
    73     2.920E+04    5.905E-02    1.222E-03    7.988E+00    1.104E+02
    74     2.960E+04    2.735E-02    5.659E-04   -9.208E+01    1.177E+01
    75     3.000E+04    1.562E-02    3.233E-04    1.245E+02    2.297E+02
    76     3.040E+04    5.880E-03    1.217E-04    1.690E+01    1.236E+02
    77     3.080E+04    2.155E-02    4.459E-04    9.144E+01    1.995E+02
    78     3.120E+04    5.370E-02    1.111E-03    3.245E+01    1.419E+02
    79     3.160E+04    1.462E-02    3.026E-04   -8.429E+01    2.658E+01
    80     3.200E+04    3.547E-02    7.340E-04   -1.604E+02   -4.812E+01
    81     3.240E+04    3.298E-02    6.826E-04   -4.009E+01    7.358E+01
    82     3.280E+04    4.415E-02    9.138E-04    5.726E+01    1.723E+02
    83     3.320E+04    6.117E-02    1.266E-03    8.734E+01    2.038E+02
    84     3.360E+04    3.581E-02    7.410E-04   -1.220E+02   -4.075E+00
    85     3.400E+04    3.291E-02    6.811E-04   -6.306E+01    5.622E+01
    86     3.440E+04    2.799E-02    5.793E-04   -4.133E+00    1.166E+02
    87     3.480E+04    2.417E-02    5.001E-04    1.408E+02    2.629E+02
    88     3.520E+04    2.692E-02    5.572E-04    3.745E+01    1.609E+02
    89     3.560E+04    2.703E-02    5.595E-04    8.068E+01    2.056E+02
    90     3.600E+04    1.143E-02    2.366E-04    1.243E+02    2.506E+02
    91     3.640E+04    3.590E-02    7.431E-04   -7.352E+01    5.418E+01
    92     3.680E+04    8.481E-03    1.755E-04    1.581E+01    1.449E+02
    93     3.720E+04    2.137E-02    4.423E-04   -1.123E+02    1.825E+01
    94     3.760E+04    1.896E-02    3.924E-04    2.025E+01    1.522E+02
    95     3.800E+04    3.351E-02    6.936E-04    9.397E+01    2.273E+02
    96     3.840E+04    9.621E-03    1.991E-04    7.420E+01    2.089E+02
    97     3.880E+04    3.053E-02    6.318E-04    5.162E+01    1.877E+02
    98     3.920E+04    8.649E-03    1.790E-04   -1.527E+02   -1.516E+01
    99     3.960E+04    1.830E-02    3.788E-04   -3.080E+01    1.081E+02


     TOTAL HARMONIC DISTORTION =   2.925054E+00 PERCENT

**** 04/21/19 19:40:55 ********* PSpice 9.2 (Mar 2000) ******** ID# 1 ********

 * D:\GIT\MAI\Invertor\Orcad\10_DC_sweep_27v_10-500ohm\test.sch


 ****     FOURIER ANALYSIS                 TEMPERATURE =   27.000 DEG C

 ****     CURRENT STEP                     PARAM RN =  150   


******************************************************************************



FOURIER COMPONENTS OF TRANSIENT RESPONSE V(V_sence)



 DC COMPONENT =  -2.416219E-01

 HARMONIC   FREQUENCY    FOURIER    NORMALIZED    PHASE        NORMALIZED
    NO         (HZ)     COMPONENT    COMPONENT    (DEG)       PHASE (DEG)

     1     4.000E+02    4.840E+01    1.000E+00   -1.423E+00    0.000E+00
     2     8.000E+02    9.841E-02    2.033E-03    1.574E-01    3.003E+00
     3     1.200E+03    7.687E-02    1.588E-03   -4.475E+01   -4.048E+01
     4     1.600E+03    1.912E-02    3.950E-04   -1.450E+02   -1.393E+02
     5     2.000E+03    6.631E-03    1.370E-04    1.617E+02    1.688E+02
     6     2.400E+03    8.855E-03    1.830E-04    3.154E+01    4.008E+01
     7     2.800E+03    4.734E-03    9.782E-05    1.628E+02    1.727E+02
     8     3.200E+03    1.878E-02    3.880E-04   -9.148E+01   -8.009E+01
     9     3.600E+03    1.740E-02    3.596E-04   -7.377E+01   -6.096E+01
    10     4.000E+03    8.816E-03    1.822E-04   -1.461E+01   -3.808E-01
    11     4.400E+03    5.653E-03    1.168E-04   -1.477E+01    8.804E-01
    12     4.800E+03    4.710E-03    9.732E-05    5.368E+01    7.075E+01
    13     5.200E+03    1.052E-02    2.173E-04   -7.870E+01   -6.021E+01
    14     5.600E+03    3.156E-03    6.522E-05    1.035E+01    3.026E+01
    15     6.000E+03    1.693E-02    3.498E-04   -1.571E+02   -1.358E+02
    16     6.400E+03    1.935E-02    3.997E-04   -7.368E+01   -5.092E+01
    17     6.800E+03    1.865E-02    3.854E-04   -2.835E+01   -4.167E+00
    18     7.200E+03    1.826E-02    3.772E-04    9.580E+01    1.214E+02
    19     7.600E+03    1.212E-02    2.504E-04   -1.173E+02   -9.022E+01
    20     8.000E+03    1.867E-02    3.857E-04   -3.492E+01   -6.470E+00
    21     8.400E+03    2.204E-02    4.555E-04    1.402E+01    4.390E+01
    22     8.800E+03    2.776E-02    5.735E-04   -1.794E+02   -1.481E+02
    23     9.200E+03    2.738E-02    5.658E-04   -8.034E+01   -4.762E+01
    24     9.600E+03    1.834E-02    3.789E-04    4.204E+01    7.618E+01
    25     1.000E+04    3.018E-03    6.237E-05   -6.108E+01   -2.552E+01
    26     1.040E+04    1.263E-02    2.611E-04   -1.111E+02   -7.415E+01
    27     1.080E+04    3.204E-02    6.620E-04   -6.062E+01   -2.221E+01
    28     1.120E+04    1.058E-02    2.186E-04   -8.311E+01   -4.327E+01
    29     1.160E+04    9.728E-03    2.010E-04   -4.268E+01   -1.420E+00
    30     1.200E+04    2.382E-02    4.922E-04   -4.331E+01   -6.292E-01
    31     1.240E+04    1.547E-02    3.197E-04   -6.684E+01   -2.273E+01
    32     1.280E+04    3.254E-02    6.722E-04    1.270E+02    1.725E+02
    33     1.320E+04    5.636E-02    1.165E-03    3.076E+01    7.771E+01
    34     1.360E+04    1.133E-01    2.341E-03   -6.534E+01   -1.696E+01
    35     1.400E+04    1.420E-01    2.934E-03   -1.645E+02   -1.147E+02
    36     1.440E+04    1.956E-01    4.041E-03    9.390E+01    1.451E+02
    37     1.480E+04    3.411E-01    7.047E-03   -2.538E+01    2.726E+01
    38     1.520E+04    2.805E-01    5.796E-03   -1.046E+02   -5.052E+01
    39     1.560E+04    4.982E-01    1.029E-02    1.239E+02    1.794E+02
    40     1.600E+04    1.007E-01    2.081E-03    6.341E+01    1.203E+02
    41     1.640E+04    4.885E-01    1.009E-02   -8.114E+01   -2.281E+01
    42     1.680E+04    3.308E-01    6.836E-03    1.582E+01    7.558E+01
    43     1.720E+04    1.099E-01    2.271E-03    1.321E+02    1.933E+02
    44     1.760E+04    4.733E-01    9.779E-03    1.748E+02    2.374E+02
    45     1.800E+04    2.675E-01    5.528E-03    2.867E+01    9.269E+01
    46     1.840E+04    3.293E-01    6.805E-03   -1.740E+02   -1.085E+02
    47     1.880E+04    5.064E-01    1.046E-02   -2.512E+01    4.175E+01
    48     1.920E+04    1.112E-01    2.297E-03   -9.079E+01   -2.250E+01
    49     1.960E+04    3.198E-01    6.607E-03   -4.215E+01    2.757E+01
    50     2.000E+04    2.395E-02    4.949E-04   -1.207E+02   -4.958E+01
    51     2.040E+04    2.723E-02    5.626E-04    1.589E+02    2.315E+02
    52     2.080E+04    1.546E-01    3.194E-03    1.364E+02    2.104E+02
    53     2.120E+04    1.794E-01    3.708E-03    1.365E+02    2.119E+02
    54     2.160E+04    1.815E-01    3.750E-03    1.339E+02    2.107E+02
    55     2.200E+04    1.672E-01    3.455E-03    1.340E+02    2.122E+02
    56     2.240E+04    1.367E-01    2.824E-03    1.347E+02    2.143E+02
    57     2.280E+04    1.075E-01    2.221E-03    1.342E+02    2.152E+02
    58     2.320E+04    8.654E-02    1.788E-03    1.292E+02    2.117E+02
    59     2.360E+04    7.807E-02    1.613E-03    1.321E+02    2.160E+02
    60     2.400E+04    5.672E-02    1.172E-03    1.390E+02    2.243E+02
    61     2.440E+04    4.545E-02    9.392E-04    1.377E+02    2.245E+02
    62     2.480E+04    4.243E-02    8.766E-04    1.379E+02    2.262E+02
    63     2.520E+04    3.705E-02    7.656E-04    1.503E+02    2.399E+02
    64     2.560E+04    2.362E-02    4.881E-04    1.529E+02    2.440E+02
    65     2.600E+04    2.137E-02    4.416E-04    1.328E+02    2.253E+02
    66     2.640E+04    1.817E-02    3.754E-04    1.508E+02    2.447E+02
    67     2.680E+04    2.027E-02    4.189E-04    1.797E+02    2.750E+02
    68     2.720E+04    2.089E-02    4.316E-04    1.442E+02    2.410E+02
    69     2.760E+04    1.126E-02    2.326E-04    1.240E+02    2.222E+02
    70     2.800E+04    1.433E-02    2.961E-04   -1.362E+02   -3.661E+01
    71     2.840E+04    3.312E-02    6.844E-04    1.732E+02    2.742E+02
    72     2.880E+04    3.242E-02    6.699E-04    9.422E+01    1.967E+02
    73     2.920E+04    2.332E-02    4.819E-04   -3.238E+01    7.148E+01
    74     2.960E+04    5.013E-02    1.036E-03   -1.381E+02   -3.281E+01
    75     3.000E+04    5.490E-02    1.134E-03    1.295E+02    2.362E+02
    76     3.040E+04    4.484E-02    9.264E-04    4.023E+01    1.484E+02
    77     3.080E+04    4.607E-02    9.519E-04   -1.028E+02    6.715E+00
    78     3.120E+04    3.240E-02    6.695E-04   -1.638E+02   -5.281E+01
    79     3.160E+04    3.793E-02    7.838E-04    5.508E+01    1.675E+02
    80     3.200E+04    4.527E-02    9.354E-04    1.262E+02    2.400E+02
    81     3.240E+04    3.062E-02    6.327E-04    1.782E+02    2.934E+02
    82     3.280E+04    7.169E-02    1.481E-03   -6.773E+01    4.893E+01
    83     3.320E+04    1.084E-02    2.239E-04    6.650E+01    1.846E+02
    84     3.360E+04    5.791E-02    1.197E-03    1.133E+02    2.328E+02
    85     3.400E+04    2.796E-02    5.777E-04   -1.703E+02   -4.936E+01
    86     3.440E+04    2.044E-02    4.223E-04    7.095E+01    1.933E+02
    87     3.480E+04    1.955E-02    4.040E-04   -9.109E+01    3.268E+01
    88     3.520E+04    3.476E-02    7.181E-04   -1.041E+02    2.114E+01
    89     3.560E+04    2.229E-02    4.605E-04    4.094E+01    1.676E+02
    90     3.600E+04    4.202E-02    8.683E-04    1.582E+02    2.862E+02
    91     3.640E+04    2.242E-02    4.633E-04    6.942E+01    1.989E+02
    92     3.680E+04    2.608E-02    5.389E-04    1.180E+02    2.489E+02
    93     3.720E+04    1.481E-02    3.060E-04   -1.247E+02    7.631E+00
    94     3.760E+04    2.092E-02    4.323E-04   -6.239E+01    7.134E+01
    95     3.800E+04    2.342E-02    4.838E-04   -1.272E+02    7.948E+00
    96     3.840E+04    1.594E-02    3.293E-04   -6.909E+01    6.749E+01
    97     3.880E+04    1.625E-02    3.358E-04    1.461E+02    2.841E+02
    98     3.920E+04    1.126E-02    2.327E-04    8.610E+01    2.255E+02
    99     3.960E+04    2.719E-02    5.618E-04    1.003E+02    2.412E+02


     TOTAL HARMONIC DISTORTION =   2.844929E+00 PERCENT

**** 04/21/19 19:40:55 ********* PSpice 9.2 (Mar 2000) ******** ID# 1 ********

 * D:\GIT\MAI\Invertor\Orcad\10_DC_sweep_27v_10-500ohm\test.sch


 ****     FOURIER ANALYSIS                 TEMPERATURE =   27.000 DEG C

 ****     CURRENT STEP                     PARAM RN =  200   


******************************************************************************



FOURIER COMPONENTS OF TRANSIENT RESPONSE V(V_sence)



 DC COMPONENT =  -2.233719E-01

 HARMONIC   FREQUENCY    FOURIER    NORMALIZED    PHASE        NORMALIZED
    NO         (HZ)     COMPONENT    COMPONENT    (DEG)       PHASE (DEG)

     1     4.000E+02    4.842E+01    1.000E+00   -1.449E+00    0.000E+00
     2     8.000E+02    1.047E-01    2.163E-03   -1.643E+01   -1.353E+01
     3     1.200E+03    6.076E-02    1.255E-03   -3.316E+01   -2.881E+01
     4     1.600E+03    9.608E-03    1.984E-04    1.477E+02    1.535E+02
     5     2.000E+03    1.705E-02    3.522E-04    1.120E+02    1.192E+02
     6     2.400E+03    1.124E-02    2.321E-04   -2.952E+01   -2.083E+01
     7     2.800E+03    1.457E-02    3.010E-04   -1.081E+02   -9.791E+01
     8     3.200E+03    2.353E-02    4.858E-04   -9.300E+01   -8.140E+01
     9     3.600E+03    4.175E-03    8.622E-05    5.526E+01    6.830E+01
    10     4.000E+03    1.737E-02    3.588E-04   -4.248E+01   -2.799E+01
    11     4.400E+03    8.279E-03    1.710E-04    5.161E+01    6.755E+01
    12     4.800E+03    6.125E-03    1.265E-04   -1.121E+02   -9.475E+01
    13     5.200E+03    1.715E-02    3.541E-04   -5.282E+01   -3.398E+01
    14     5.600E+03    9.118E-03    1.883E-04   -1.132E+02   -9.296E+01
    15     6.000E+03    1.819E-02    3.756E-04   -8.833E+01   -6.659E+01
    16     6.400E+03    1.052E-02    2.172E-04   -1.308E+02   -1.076E+02
    17     6.800E+03    1.677E-02    3.463E-04   -1.138E+02   -8.915E+01
    18     7.200E+03    2.163E-02    4.467E-04   -9.247E+01   -6.638E+01
    19     7.600E+03    1.611E-02    3.327E-04    1.404E+02    1.680E+02
    20     8.000E+03    2.692E-02    5.559E-04   -1.168E+02   -8.786E+01
    21     8.400E+03    5.131E-03    1.060E-04   -2.904E+01    1.393E+00
    22     8.800E+03    1.592E-02    3.287E-04    1.710E+02    2.029E+02
    23     9.200E+03    3.309E-02    6.834E-04   -9.765E+01   -6.432E+01
    24     9.600E+03    7.865E-03    1.624E-04   -7.423E+01   -3.944E+01
    25     1.000E+04    8.816E-03    1.821E-04   -1.742E+02   -1.380E+02
    26     1.040E+04    1.876E-02    3.873E-04   -1.082E+02   -7.048E+01
    27     1.080E+04    5.303E-03    1.095E-04    1.584E+02    1.975E+02
    28     1.120E+04    7.697E-03    1.589E-04   -1.106E+02   -6.999E+01
    29     1.160E+04    1.892E-02    3.908E-04   -2.219E+01    1.983E+01
    30     1.200E+04    2.739E-02    5.657E-04   -1.089E+02   -6.538E+01
    31     1.240E+04    2.016E-02    4.163E-04   -1.174E+02   -7.249E+01
    32     1.280E+04    2.205E-02    4.554E-04    5.311E+01    9.948E+01
    33     1.320E+04    6.519E-02    1.346E-03   -6.420E+01   -1.638E+01
    34     1.360E+04    9.356E-02    1.932E-03   -1.316E+02   -8.230E+01
    35     1.400E+04    1.088E-01    2.246E-03    9.867E+01    1.494E+02
    36     1.440E+04    1.557E-01    3.216E-03    2.223E+01    7.440E+01
    37     1.480E+04    2.466E-01    5.093E-03   -1.158E+02   -6.214E+01
    38     1.520E+04    2.998E-01    6.190E-03   -1.618E+02   -1.068E+02
    39     1.560E+04    4.832E-01    9.979E-03    2.899E+01    8.550E+01
    40     1.600E+04    2.493E-01    5.149E-03   -6.783E+00    5.119E+01
    41     1.640E+04    5.845E-01    1.207E-02   -1.702E+02   -1.107E+02
    42     1.680E+04    2.254E-01    4.655E-03   -9.092E+01   -3.006E+01
    43     1.720E+04    1.714E-01    3.539E-03    2.724E+00    6.504E+01
    44     1.760E+04    3.094E-01    6.389E-03    1.010E+02    1.647E+02
    45     1.800E+04    4.794E-01    9.900E-03   -2.625E+01    3.896E+01
    46     1.840E+04    3.332E-01    6.882E-03    1.414E+02    2.081E+02
    47     1.880E+04    3.640E-01    7.518E-03   -9.598E+01   -2.786E+01
    48     1.920E+04    3.285E-01    6.784E-03    1.788E+02    2.483E+02
    49     1.960E+04    2.404E-01    4.965E-03   -1.219E+02   -5.091E+01
    50     2.000E+04    1.004E-01    2.074E-03    1.683E+02    2.408E+02
    51     2.040E+04    5.518E-02    1.140E-03    1.051E+01    8.442E+01
    52     2.080E+04    1.382E-01    2.853E-03    4.950E+01    1.249E+02
    53     2.120E+04    1.875E-01    3.871E-03    4.231E+01    1.191E+02
    54     2.160E+04    1.738E-01    3.589E-03    5.170E+01    1.300E+02
    55     2.200E+04    1.698E-01    3.506E-03    4.934E+01    1.290E+02
    56     2.240E+04    1.276E-01    2.635E-03    5.784E+01    1.390E+02
    57     2.280E+04    1.097E-01    2.266E-03    5.696E+01    1.396E+02
    58     2.320E+04    7.918E-02    1.635E-03    6.524E+01    1.493E+02
    59     2.360E+04    6.494E-02    1.341E-03    6.616E+01    1.517E+02
    60     2.400E+04    5.588E-02    1.154E-03    7.311E+01    1.601E+02
    61     2.440E+04    4.743E-02    9.795E-04    8.038E+01    1.688E+02
    62     2.480E+04    3.638E-02    7.513E-04    8.066E+01    1.705E+02
    63     2.520E+04    4.202E-02    8.679E-04    8.258E+01    1.739E+02
    64     2.560E+04    2.850E-02    5.886E-04    8.832E+01    1.811E+02
    65     2.600E+04    2.193E-02    4.528E-04    7.433E+01    1.685E+02
    66     2.640E+04    2.256E-02    4.660E-04    8.375E+01    1.794E+02
    67     2.680E+04    2.062E-02    4.259E-04    7.568E+01    1.728E+02
    68     2.720E+04    1.507E-02    3.112E-04    5.062E+01    1.492E+02
    69     2.760E+04    1.043E-02    2.154E-04    1.055E+02    2.055E+02
    70     2.800E+04    2.273E-02    4.694E-04    9.399E+01    1.954E+02
    71     2.840E+04    2.616E-02    5.402E-04    4.722E+01    1.501E+02
    72     2.880E+04    1.283E-02    2.649E-04   -5.961E+01    4.473E+01
    73     2.920E+04    2.038E-02    4.210E-04    1.362E+02    2.420E+02
    74     2.960E+04    5.023E-02    1.037E-03    7.280E+01    1.800E+02
    75     3.000E+04    2.930E-02    6.050E-04   -2.612E+01    8.257E+01
    76     3.040E+04    4.468E-02    9.226E-04   -1.248E+02   -1.466E+01
    77     3.080E+04    4.629E-02    9.559E-04    8.613E+01    1.977E+02
    78     3.120E+04    7.047E-02    1.455E-03    4.668E+01    1.597E+02
    79     3.160E+04    3.866E-02    7.984E-04   -1.457E+02   -3.126E+01
    80     3.200E+04    3.903E-02    8.060E-04   -1.256E+02   -9.706E+00
    81     3.240E+04    5.451E-02    1.126E-03    6.748E+00    1.241E+02
    82     3.280E+04    5.771E-02    1.192E-03    9.610E+01    2.149E+02
    83     3.320E+04    2.374E-02    4.902E-04    9.671E+01    2.170E+02
    84     3.360E+04    4.641E-02    9.584E-04   -6.249E+01    5.925E+01
    85     3.400E+04    2.763E-02    5.706E-04    1.684E+02    2.916E+02
    86     3.440E+04    8.087E-03    1.670E-04   -1.041E+02    2.054E+01
    87     3.480E+04    2.599E-02    5.366E-04    4.164E+01    1.677E+02
    88     3.520E+04    5.639E-02    1.165E-03    7.919E+01    2.067E+02
    89     3.560E+04    2.319E-02    4.790E-04   -5.948E+01    6.950E+01
    90     3.600E+04    1.121E-02    2.315E-04    8.021E+01    2.106E+02
    91     3.640E+04    3.136E-02    6.477E-04   -1.201E+02    1.183E+01
    92     3.680E+04    6.131E-03    1.266E-04   -1.067E+02    2.661E+01
    93     3.720E+04    1.740E-02    3.594E-04    7.849E+01    2.133E+02
    94     3.760E+04    1.827E-02    3.772E-04    4.514E+01    1.814E+02
    95     3.800E+04    3.851E-02    7.954E-04    6.117E+01    1.988E+02
    96     3.840E+04    8.349E-03    1.724E-04    5.416E+01    1.933E+02
    97     3.880E+04    8.773E-03    1.812E-04    4.629E+01    1.869E+02
    98     3.920E+04    1.509E-02    3.115E-04   -1.214E+02    2.058E+01
    99     3.960E+04    1.287E-02    2.658E-04   -1.029E+02    4.059E+01


     TOTAL HARMONIC DISTORTION =   2.836392E+00 PERCENT

**** 04/21/19 19:40:55 ********* PSpice 9.2 (Mar 2000) ******** ID# 1 ********

 * D:\GIT\MAI\Invertor\Orcad\10_DC_sweep_27v_10-500ohm\test.sch


 ****     FOURIER ANALYSIS                 TEMPERATURE =   27.000 DEG C

 ****     CURRENT STEP                     PARAM RN =  250   


******************************************************************************



FOURIER COMPONENTS OF TRANSIENT RESPONSE V(V_sence)



 DC COMPONENT =  -2.252533E-01

 HARMONIC   FREQUENCY    FOURIER    NORMALIZED    PHASE        NORMALIZED
    NO         (HZ)     COMPONENT    COMPONENT    (DEG)       PHASE (DEG)

     1     4.000E+02    4.848E+01    1.000E+00   -1.419E+00    0.000E+00
     2     8.000E+02    8.044E-02    1.659E-03   -4.780E+00   -1.941E+00
     3     1.200E+03    5.628E-02    1.161E-03   -4.381E+01   -3.956E+01
     4     1.600E+03    3.692E-03    7.617E-05    1.664E+02    1.721E+02
     5     2.000E+03    1.683E-02    3.472E-04    9.077E+01    9.786E+01
     6     2.400E+03    5.003E-03    1.032E-04    2.700E+01    3.552E+01
     7     2.800E+03    1.107E-02    2.283E-04    1.599E+02    1.698E+02
     8     3.200E+03    1.575E-02    3.250E-04   -9.654E+01   -8.519E+01
     9     3.600E+03    1.795E-02    3.703E-04   -8.524E+01   -7.247E+01
    10     4.000E+03    8.327E-03    1.718E-04   -4.550E+01   -3.131E+01
    11     4.400E+03    9.779E-03    2.017E-04   -3.894E+01   -2.333E+01
    12     4.800E+03    9.622E-03    1.985E-04   -3.656E+01   -1.953E+01
    13     5.200E+03    1.981E-02    4.087E-04    1.685E+02    1.870E+02
    14     5.600E+03    3.281E-03    6.769E-05   -3.998E+01   -2.011E+01
    15     6.000E+03    7.551E-03    1.558E-04   -7.648E+01   -5.519E+01
    16     6.400E+03    1.337E-02    2.758E-04   -8.502E+01   -6.231E+01
    17     6.800E+03    8.696E-03    1.794E-04    4.816E+01    7.229E+01
    18     7.200E+03    1.127E-02    2.325E-04   -1.679E+02   -1.423E+02
    19     7.600E+03    1.591E-02    3.281E-04   -1.274E+01    1.423E+01
    20     8.000E+03    2.544E-03    5.249E-05    1.254E+02    1.538E+02
    21     8.400E+03    1.040E-02    2.145E-04   -5.339E+01   -2.359E+01
    22     8.800E+03    7.901E-03    1.630E-04   -6.661E+01   -3.538E+01
    23     9.200E+03    2.767E-03    5.707E-05    1.337E+02    1.664E+02
    24     9.600E+03    1.400E-02    2.888E-04   -7.468E+01   -4.062E+01
    25     1.000E+04    1.475E-02    3.042E-04   -8.872E+00    2.661E+01
    26     1.040E+04    7.703E-03    1.589E-04    1.765E+02    2.134E+02
    27     1.080E+04    9.717E-03    2.004E-04   -8.319E+01   -4.487E+01
    28     1.120E+04    1.704E-02    3.514E-04   -1.629E+02   -1.232E+02
    29     1.160E+04    8.822E-03    1.820E-04   -8.639E+01   -4.523E+01
    30     1.200E+04    2.610E-02    5.384E-04    2.019E+01    6.277E+01
    31     1.240E+04    8.704E-03    1.795E-04   -7.319E+01   -2.919E+01
    32     1.280E+04    8.957E-03    1.848E-04    1.450E+02    1.904E+02
    33     1.320E+04    2.470E-02    5.095E-04    1.521E+02    1.989E+02
    34     1.360E+04    5.793E-02    1.195E-03   -4.414E+01    4.115E+00
    35     1.400E+04    7.583E-02    1.564E-03   -1.162E+02   -6.655E+01
    36     1.440E+04    1.025E-01    2.113E-03    1.339E+02    1.850E+02
    37     1.480E+04    1.893E-01    3.905E-03    1.119E+01    6.370E+01
    38     1.520E+04    2.347E-01    4.842E-03   -5.376E+01    1.738E-01
    39     1.560E+04    4.163E-01    8.588E-03    1.670E+02    2.223E+02
    40     1.600E+04    2.173E-01    4.482E-03    1.249E+02    1.817E+02
    41     1.640E+04    6.561E-01    1.353E-02   -4.107E+01    1.712E+01
    42     1.680E+04    1.100E-01    2.269E-03    2.965E+01    8.926E+01
    43     1.720E+04    3.366E-01    6.943E-03    1.272E+02    1.882E+02
    44     1.760E+04    3.900E-01    8.045E-03   -1.250E+02   -6.259E+01
    45     1.800E+04    4.390E-01    9.056E-03    9.175E+01    1.556E+02
    46     1.840E+04    3.664E-01    7.558E-03   -7.910E+01   -1.381E+01
    47     1.880E+04    3.416E-01    7.046E-03    2.321E+01    8.992E+01
    48     1.920E+04    2.544E-01    5.247E-03   -5.898E+01    9.143E+00
    49     1.960E+04    1.293E-01    2.666E-03    1.053E+01    8.007E+01
    50     2.000E+04    7.164E-02    1.478E-03    1.764E+02    2.474E+02
    51     2.040E+04    1.705E-01    3.517E-03    1.405E+02    2.129E+02
    52     2.080E+04    2.371E-01    4.890E-03    1.480E+02    2.218E+02
    53     2.120E+04    2.342E-01    4.831E-03    1.461E+02    2.213E+02
    54     2.160E+04    2.010E-01    4.146E-03    1.485E+02    2.251E+02
    55     2.200E+04    1.488E-01    3.070E-03    1.472E+02    2.253E+02
    56     2.240E+04    1.062E-01    2.190E-03    1.456E+02    2.250E+02
    57     2.280E+04    7.890E-02    1.628E-03    1.393E+02    2.202E+02
    58     2.320E+04    5.627E-02    1.161E-03    1.297E+02    2.120E+02
    59     2.360E+04    4.670E-02    9.633E-04    1.241E+02    2.078E+02
    60     2.400E+04    3.249E-02    6.701E-04    1.124E+02    1.975E+02
    61     2.440E+04    3.049E-02    6.289E-04    1.138E+02    2.004E+02
    62     2.480E+04    1.954E-02    4.031E-04    1.191E+02    2.071E+02
    63     2.520E+04    2.084E-02    4.299E-04    1.145E+02    2.039E+02
    64     2.560E+04    1.570E-02    3.239E-04    1.339E+02    2.247E+02
    65     2.600E+04    1.184E-02    2.441E-04    1.231E+02    2.154E+02
    66     2.640E+04    1.316E-02    2.715E-04    1.235E+02    2.171E+02
    67     2.680E+04    1.004E-02    2.070E-04    1.487E+02    2.438E+02
    68     2.720E+04    1.307E-02    2.696E-04    1.591E+02    2.557E+02
    69     2.760E+04    1.273E-02    2.626E-04    1.455E+02    2.435E+02
    70     2.800E+04    4.145E-03    8.550E-05    1.260E+02    2.253E+02
    71     2.840E+04    6.300E-03    1.300E-04   -1.622E+02   -6.140E+01
    72     2.880E+04    2.118E-02    4.370E-04    1.539E+02    2.561E+02
    73     2.920E+04    1.690E-02    3.485E-04    9.962E+01    2.032E+02
    74     2.960E+04    1.252E-02    2.583E-04   -6.278E+01    4.225E+01
    75     3.000E+04    2.944E-02    6.072E-04   -1.532E+02   -4.677E+01
    76     3.040E+04    4.502E-02    9.287E-04    1.160E+02    2.239E+02
    77     3.080E+04    3.425E-02    7.065E-04    4.828E+00    1.141E+02
    78     3.120E+04    4.748E-02    9.794E-04   -8.184E+01    2.886E+01
    79     3.160E+04    6.084E-02    1.255E-03    1.406E+02    2.527E+02
    80     3.200E+04    4.759E-02    9.817E-04    1.152E+02    2.288E+02
    81     3.240E+04    5.870E-02    1.211E-03   -8.155E+01    3.341E+01
    82     3.280E+04    3.872E-02    7.988E-04   -1.430E+01    1.021E+02
    83     3.320E+04    4.015E-02    8.281E-04    7.873E+01    1.965E+02
    84     3.360E+04    7.139E-02    1.473E-03   -1.793E+02   -6.013E+01
    85     3.400E+04    1.390E-02    2.866E-04    9.317E+01    2.138E+02
    86     3.440E+04    2.007E-02    4.140E-04   -1.243E+01    1.096E+02
    87     3.480E+04    2.217E-02    4.574E-04   -1.101E+02    1.338E+01
    88     3.520E+04    3.629E-02    7.485E-04   -8.009E+00    1.169E+02
    89     3.560E+04    4.293E-02    8.855E-04    1.602E+02    2.865E+02
    90     3.600E+04    1.441E-02    2.972E-04    1.222E+02    2.499E+02
    91     3.640E+04    2.358E-02    4.864E-04    1.145E+02    2.436E+02
    92     3.680E+04    7.385E-03    1.523E-04    1.625E+02    2.930E+02
    93     3.720E+04    2.558E-02    5.276E-04   -3.320E+01    9.879E+01
    94     3.760E+04    1.106E-02    2.282E-04   -1.065E+02    2.689E+01
    95     3.800E+04    1.877E-02    3.873E-04   -6.060E+01    7.423E+01
    96     3.840E+04    1.554E-02    3.205E-04    1.484E+02    2.846E+02
    97     3.880E+04    1.703E-02    3.512E-04    1.336E+02    2.712E+02
    98     3.920E+04    2.856E-02    5.891E-04    1.276E+02    2.667E+02
    99     3.960E+04    1.812E-02    3.738E-04    1.329E+02    2.734E+02


     TOTAL HARMONIC DISTORTION =   2.802547E+00 PERCENT

**** 04/21/19 19:40:55 ********* PSpice 9.2 (Mar 2000) ******** ID# 1 ********

 * D:\GIT\MAI\Invertor\Orcad\10_DC_sweep_27v_10-500ohm\test.sch


 ****     FOURIER ANALYSIS                 TEMPERATURE =   27.000 DEG C

 ****     CURRENT STEP                     PARAM RN =  300   


******************************************************************************



FOURIER COMPONENTS OF TRANSIENT RESPONSE V(V_sence)



 DC COMPONENT =  -2.120507E-01

 HARMONIC   FREQUENCY    FOURIER    NORMALIZED    PHASE        NORMALIZED
    NO         (HZ)     COMPONENT    COMPONENT    (DEG)       PHASE (DEG)

     1     4.000E+02    4.847E+01    1.000E+00   -1.420E+00    0.000E+00
     2     8.000E+02    8.107E-02    1.672E-03   -2.136E+01   -1.852E+01
     3     1.200E+03    4.146E-02    8.553E-04   -1.888E+01   -1.462E+01
     4     1.600E+03    9.120E-03    1.881E-04   -1.722E+02   -1.665E+02
     5     2.000E+03    1.078E-02    2.223E-04   -1.716E+02   -1.645E+02
     6     2.400E+03    1.485E-02    3.064E-04   -7.226E+01   -6.374E+01
     7     2.800E+03    4.298E-03    8.867E-05    8.847E+01    9.841E+01
     8     3.200E+03    1.620E-02    3.342E-04    6.960E+01    8.096E+01
     9     3.600E+03    4.410E-03    9.097E-05   -1.123E+02   -9.947E+01
    10     4.000E+03    1.042E-02    2.150E-04   -1.686E+01   -2.661E+00
    11     4.400E+03    1.437E-02    2.965E-04    9.781E+01    1.134E+02
    12     4.800E+03    5.849E-03    1.207E-04    1.288E+02    1.459E+02
    13     5.200E+03    1.073E-02    2.213E-04   -1.486E+02   -1.301E+02
    14     5.600E+03    1.751E-02    3.613E-04   -7.058E+01   -5.070E+01
    15     6.000E+03    7.558E-03    1.559E-04    1.330E+02    1.543E+02
    16     6.400E+03    1.398E-02    2.883E-04   -5.069E+01   -2.796E+01
    17     6.800E+03    3.284E-02    6.774E-04    5.784E+01    8.199E+01
    18     7.200E+03    1.237E-02    2.552E-04   -1.605E+02   -1.349E+02
    19     7.600E+03    5.785E-03    1.193E-04   -6.165E+01   -3.466E+01
    20     8.000E+03    2.619E-03    5.402E-05    5.658E+01    8.498E+01
    21     8.400E+03    2.839E-03    5.858E-05   -1.593E+02   -1.295E+02
    22     8.800E+03    1.268E-02    2.616E-04    1.338E+02    1.651E+02
    23     9.200E+03    1.679E-02    3.464E-04   -1.010E+02   -6.834E+01
    24     9.600E+03    1.256E-02    2.590E-04   -6.683E+01   -3.274E+01
    25     1.000E+04    9.216E-03    1.901E-04    1.582E+01    5.133E+01
    26     1.040E+04    1.842E-02    3.801E-04   -1.546E+02   -1.177E+02
    27     1.080E+04    1.381E-02    2.849E-04   -4.085E+00    3.426E+01
    28     1.120E+04    1.208E-02    2.492E-04   -1.649E+02   -1.251E+02
    29     1.160E+04    2.510E-02    5.179E-04   -6.748E+01   -2.629E+01
    30     1.200E+04    1.721E-02    3.550E-04    6.357E+01    1.062E+02
    31     1.240E+04    2.572E-02    5.305E-04    4.943E+01    9.345E+01
    32     1.280E+04    2.022E-02    4.172E-04   -1.725E+02   -1.270E+02
    33     1.320E+04    1.104E-02    2.277E-04   -1.598E+02   -1.129E+02
    34     1.360E+04    6.489E-02    1.339E-03    1.589E+01    6.418E+01
    35     1.400E+04    5.003E-02    1.032E-03   -1.146E+02   -6.487E+01
    36     1.440E+04    1.354E-01    2.793E-03   -1.750E+02   -1.238E+02
    37     1.480E+04    1.629E-01    3.362E-03    2.752E+01    8.006E+01
    38     1.520E+04    2.829E-01    5.836E-03   -1.825E+01    3.572E+01
    39     1.560E+04    3.977E-01    8.205E-03   -1.760E+02   -1.206E+02
    40     1.600E+04    2.729E-01    5.631E-03    1.530E+02    2.098E+02
    41     1.640E+04    6.631E-01    1.368E-02   -1.051E+01    4.772E+01
    42     1.680E+04    1.236E-01    2.549E-03    6.755E+01    1.272E+02
    43     1.720E+04    3.096E-01    6.387E-03    1.592E+02    2.202E+02
    44     1.760E+04    2.868E-01    5.917E-03   -9.825E+01   -3.576E+01
    45     1.800E+04    4.424E-01    9.128E-03    1.388E+02    2.027E+02
    46     1.840E+04    4.427E-01    9.133E-03   -4.801E+01    1.732E+01
    47     1.880E+04    2.494E-01    5.145E-03    5.280E+01    1.196E+02
    48     1.920E+04    3.475E-01    7.169E-03   -3.229E+01    3.588E+01
    49     1.960E+04    1.078E-01    2.224E-03    3.657E+01    1.062E+02
    50     2.000E+04    7.624E-02    1.573E-03   -1.031E+02   -3.209E+01
    51     2.040E+04    1.477E-01    3.046E-03    1.617E+02    2.342E+02
    52     2.080E+04    2.038E-01    4.204E-03    1.732E+02    2.471E+02
    53     2.120E+04    2.121E-01    4.375E-03    1.629E+02    2.382E+02
    54     2.160E+04    1.982E-01    4.089E-03    1.626E+02    2.393E+02
    55     2.200E+04    1.611E-01    3.323E-03    1.602E+02    2.383E+02
    56     2.240E+04    1.291E-01    2.663E-03    1.587E+02    2.382E+02
    57     2.280E+04    9.533E-02    1.967E-03    1.590E+02    2.399E+02
    58     2.320E+04    7.741E-02    1.597E-03    1.626E+02    2.450E+02
    59     2.360E+04    5.823E-02    1.201E-03    1.753E+02    2.591E+02
    60     2.400E+04    3.971E-02    8.193E-04    1.795E+02    2.648E+02
    61     2.440E+04    3.477E-02    7.174E-04    1.792E+02    2.659E+02
    62     2.480E+04    2.652E-02    5.471E-04   -1.799E+02   -9.182E+01
    63     2.520E+04    2.298E-02    4.740E-04    1.703E+02    2.598E+02
    64     2.560E+04    1.863E-02    3.843E-04   -1.771E+02   -8.624E+01
    65     2.600E+04    1.435E-02    2.961E-04    1.557E+02    2.480E+02
    66     2.640E+04    1.808E-02    3.730E-04    1.729E+02    2.666E+02
    67     2.680E+04    1.308E-02    2.698E-04    1.485E+02    2.437E+02
    68     2.720E+04    1.231E-02    2.539E-04    1.686E+02    2.652E+02
    69     2.760E+04    1.587E-02    3.274E-04   -1.717E+02   -7.370E+01
    70     2.800E+04    7.511E-03    1.550E-04    1.570E+02    2.565E+02
    71     2.840E+04    6.781E-03    1.399E-04    1.190E+02    2.199E+02
    72     2.880E+04    2.146E-02    4.426E-04   -1.676E+02   -6.534E+01
    73     2.920E+04    1.951E-02    4.024E-04    1.626E+02    2.662E+02
    74     2.960E+04    1.819E-02    3.753E-04    2.021E+01    1.253E+02
    75     3.000E+04    1.465E-02    3.023E-04   -1.052E+02    1.317E+00
    76     3.040E+04    5.630E-02    1.162E-03    1.742E+02    2.822E+02
    77     3.080E+04    2.510E-02    5.179E-04    6.004E+01    1.694E+02
    78     3.120E+04    5.749E-02    1.186E-03   -1.560E+01    9.517E+01
    79     3.160E+04    5.387E-02    1.111E-03   -1.784E+02   -6.617E+01
    80     3.200E+04    6.721E-02    1.387E-03    1.628E+02    2.764E+02
    81     3.240E+04    5.234E-02    1.080E-03   -3.280E+01    8.224E+01
    82     3.280E+04    3.401E-02    7.017E-04    2.855E+01    1.450E+02
    83     3.320E+04    3.240E-02    6.685E-04    1.374E+02    2.553E+02
    84     3.360E+04    5.370E-02    1.108E-03   -1.253E+02   -5.979E+00
    85     3.400E+04    3.558E-02    7.341E-04    1.440E+02    2.647E+02
    86     3.440E+04    7.696E-03    1.588E-04    2.534E+00    1.247E+02
    87     3.480E+04    3.168E-02    6.536E-04   -2.563E+01    9.793E+01
    88     3.520E+04    4.071E-02    8.399E-04    6.807E+01    1.930E+02
    89     3.560E+04    3.770E-02    7.778E-04   -1.375E+02   -1.110E+01
    90     3.600E+04    2.836E-02    5.850E-04    1.569E+02    2.847E+02
    91     3.640E+04    3.180E-02    6.561E-04   -1.642E+02   -3.501E+01
    92     3.680E+04    6.806E-03    1.404E-04   -1.246E+02    6.026E+00
    93     3.720E+04    1.788E-02    3.688E-04    1.872E+01    1.508E+02
    94     3.760E+04    1.837E-02    3.791E-04   -3.531E+01    9.819E+01
    95     3.800E+04    1.513E-02    3.121E-04    2.231E+01    1.572E+02
    96     3.840E+04    1.315E-02    2.713E-04   -1.482E+02   -1.190E+01
    97     3.880E+04    1.637E-02    3.377E-04    1.472E+02    2.850E+02
    98     3.920E+04    2.865E-02    5.911E-04    1.706E+02    3.097E+02
    99     3.960E+04    2.043E-02    4.214E-04    1.548E+02    2.954E+02


     TOTAL HARMONIC DISTORTION =   2.807571E+00 PERCENT

**** 04/21/19 19:40:55 ********* PSpice 9.2 (Mar 2000) ******** ID# 1 ********

 * D:\GIT\MAI\Invertor\Orcad\10_DC_sweep_27v_10-500ohm\test.sch


 ****     FOURIER ANALYSIS                 TEMPERATURE =   27.000 DEG C

 ****     CURRENT STEP                     PARAM RN =  350   


******************************************************************************



FOURIER COMPONENTS OF TRANSIENT RESPONSE V(V_sence)



 DC COMPONENT =  -2.135869E-01

 HARMONIC   FREQUENCY    FOURIER    NORMALIZED    PHASE        NORMALIZED
    NO         (HZ)     COMPONENT    COMPONENT    (DEG)       PHASE (DEG)

     1     4.000E+02    4.846E+01    1.000E+00   -1.442E+00    0.000E+00
     2     8.000E+02    9.343E-02    1.928E-03   -2.775E+01   -2.487E+01
     3     1.200E+03    5.192E-02    1.071E-03   -2.026E+01   -1.593E+01
     4     1.600E+03    3.233E-03    6.670E-05    1.575E+02    1.633E+02
     5     2.000E+03    1.264E-02    2.608E-04    1.128E+02    1.200E+02
     6     2.400E+03    1.788E-02    3.690E-04   -1.163E+02   -1.076E+02
     7     2.800E+03    2.306E-02    4.758E-04   -1.263E+02   -1.162E+02
     8     3.200E+03    2.402E-02    4.956E-04   -7.773E+01   -6.619E+01
     9     3.600E+03    1.630E-02    3.364E-04   -1.543E+01   -2.459E+00
    10     4.000E+03    9.465E-03    1.953E-04    1.606E+02    1.750E+02
    11     4.400E+03    2.410E-02    4.972E-04   -1.204E+02   -1.046E+02
    12     4.800E+03    6.766E-03    1.396E-04   -1.373E+01    3.570E+00
    13     5.200E+03    1.201E-02    2.479E-04    1.553E+02    1.741E+02
    14     5.600E+03    1.880E-02    3.880E-04   -1.140E+02   -9.380E+01
    15     6.000E+03    1.885E-02    3.889E-04   -7.733E+01   -5.571E+01
    16     6.400E+03    1.234E-02    2.545E-04   -4.533E+01   -2.227E+01
    17     6.800E+03    1.527E-02    3.150E-04   -1.011E+02   -7.662E+01
    18     7.200E+03    1.708E-02    3.524E-04   -9.487E+01   -6.893E+01
    19     7.600E+03    1.588E-03    3.276E-05   -1.232E+02   -9.581E+01
    20     8.000E+03    1.733E-02    3.575E-04   -7.873E+01   -4.989E+01
    21     8.400E+03    7.307E-03    1.508E-04   -9.315E+01   -6.288E+01
    22     8.800E+03    1.409E-02    2.907E-04   -1.196E+02   -8.791E+01
    23     9.200E+03    4.800E-03    9.905E-05   -4.432E+01   -1.116E+01
    24     9.600E+03    1.034E-02    2.133E-04   -8.976E+01   -5.516E+01
    25     1.000E+04    2.552E-02    5.265E-04   -1.010E+02   -6.497E+01
    26     1.040E+04    2.377E-02    4.904E-04   -4.787E+01   -1.039E+01
    27     1.080E+04    1.627E-02    3.357E-04    1.569E+02    1.958E+02
    28     1.120E+04    2.208E-02    4.555E-04   -1.022E+02   -6.179E+01
    29     1.160E+04    1.857E-02    3.832E-04   -9.699E+01   -5.518E+01
    30     1.200E+04    1.033E-02    2.132E-04   -1.265E+00    4.198E+01
    31     1.240E+04    2.285E-02    4.715E-04   -1.037E+02   -5.906E+01
    32     1.280E+04    4.092E-02    8.444E-04   -1.065E+02   -6.037E+01
    33     1.320E+04    8.678E-03    1.791E-04    9.033E+01    1.379E+02
    34     1.360E+04    4.090E-02    8.438E-04   -5.247E+01   -3.455E+00
    35     1.400E+04    1.265E-02    2.611E-04   -1.586E+02   -1.081E+02
    36     1.440E+04    1.204E-01    2.484E-03    1.108E+02    1.627E+02
    37     1.480E+04    1.190E-01    2.455E-03   -7.405E+01   -2.071E+01
    38     1.520E+04    3.584E-01    7.395E-03   -9.162E+01   -3.684E+01
    39     1.560E+04    3.064E-01    6.323E-03    9.225E+01    1.485E+02
    40     1.600E+04    4.466E-01    9.216E-03    7.496E+01    1.326E+02
    41     1.640E+04    6.383E-01    1.317E-02   -9.808E+01   -3.898E+01
    42     1.680E+04    2.235E-01    4.613E-03   -8.909E+01   -2.854E+01
    43     1.720E+04    2.610E-01    5.385E-03    7.127E+01    1.333E+02
    44     1.760E+04    2.336E-01    4.819E-03   -1.555E+02   -9.208E+01
    45     1.800E+04    5.228E-01    1.079E-02    6.302E+01    1.279E+02
    46     1.840E+04    3.390E-01    6.996E-03   -1.288E+02   -6.245E+01
    47     1.880E+04    1.718E-01    3.546E-03   -1.010E+01    5.766E+01
    48     1.920E+04    3.809E-01    7.858E-03   -1.048E+02   -3.562E+01
    49     1.960E+04    1.976E-01    4.078E-03   -6.131E+01    9.330E+00
    50     2.000E+04    1.291E-01    2.663E-03   -9.733E+01   -2.525E+01
    51     2.040E+04    5.926E-02    1.223E-03    5.943E+01    1.329E+02
    52     2.080E+04    1.223E-01    2.523E-03    9.972E+01    1.747E+02
    53     2.120E+04    1.842E-01    3.802E-03    9.125E+01    1.677E+02
    54     2.160E+04    1.886E-01    3.892E-03    9.633E+01    1.742E+02
    55     2.200E+04    1.659E-01    3.423E-03    9.443E+01    1.737E+02
    56     2.240E+04    1.376E-01    2.838E-03    9.152E+01    1.723E+02
    57     2.280E+04    1.103E-01    2.276E-03    8.961E+01    1.718E+02
    58     2.320E+04    9.000E-02    1.857E-03    8.604E+01    1.696E+02
    59     2.360E+04    6.905E-02    1.425E-03    8.354E+01    1.686E+02
    60     2.400E+04    5.227E-02    1.078E-03    8.315E+01    1.696E+02
    61     2.440E+04    3.942E-02    8.134E-04    8.964E+01    1.776E+02
    62     2.480E+04    2.970E-02    6.128E-04    8.728E+01    1.767E+02
    63     2.520E+04    2.551E-02    5.264E-04    8.945E+01    1.803E+02
    64     2.560E+04    2.088E-02    4.309E-04    7.887E+01    1.711E+02
    65     2.600E+04    2.348E-02    4.844E-04    9.401E+01    1.877E+02
    66     2.640E+04    1.646E-02    3.397E-04    9.207E+01    1.872E+02
    67     2.680E+04    1.903E-02    3.927E-04    7.424E+01    1.708E+02
    68     2.720E+04    2.043E-02    4.215E-04    8.560E+01    1.836E+02
    69     2.760E+04    1.821E-02    3.758E-04    9.700E+01    1.965E+02
    70     2.800E+04    1.357E-02    2.800E-04    6.298E+01    1.639E+02
    71     2.840E+04    1.080E-02    2.228E-04    9.047E+01    1.928E+02
    72     2.880E+04    1.902E-02    3.925E-04    9.130E+01    1.951E+02
    73     2.920E+04    1.854E-02    3.825E-04    5.628E+01    1.615E+02
    74     2.960E+04    1.039E-02    2.144E-04    1.617E+02    2.684E+02
    75     3.000E+04    1.886E-02    3.892E-04    1.405E+02    2.487E+02
    76     3.040E+04    4.715E-02    9.729E-04    1.998E+01    1.295E+02
    77     3.080E+04    1.495E-02    3.084E-04    6.199E+00    1.172E+02
    78     3.120E+04    8.201E-02    1.692E-03    1.690E+02    2.814E+02
    79     3.160E+04    1.678E-02    3.462E-04    7.453E+01    1.884E+02
    80     3.200E+04    9.533E-02    1.967E-03   -9.178E+00    1.061E+02
    81     3.240E+04    2.869E-02    5.919E-04    1.374E+02    2.542E+02
    82     3.280E+04    5.692E-02    1.174E-03    1.611E+02    2.793E+02
    83     3.320E+04    1.350E-02    2.786E-04   -5.845E+01    6.120E+01
    84     3.360E+04    3.484E-02    7.189E-04    9.255E+01    2.136E+02
    85     3.400E+04    3.713E-02    7.661E-04   -1.445E+01    1.081E+02
    86     3.440E+04    2.104E-02    4.342E-04   -2.671E+01    9.726E+01
    87     3.480E+04    3.995E-02    8.243E-04    1.326E+02    2.580E+02
    88     3.520E+04    2.359E-02    4.868E-04   -1.247E+02    2.112E+00
    89     3.560E+04    3.729E-02    7.695E-04    1.237E+02    2.520E+02
    90     3.600E+04    1.214E-02    2.505E-04   -3.098E+01    9.876E+01
    91     3.640E+04    2.898E-02    5.980E-04    1.666E+01    1.478E+02
    92     3.680E+04    2.345E-02    4.840E-04    3.660E+01    1.692E+02
    93     3.720E+04    6.835E-03    1.410E-04   -2.907E+01    1.050E+02
    94     3.760E+04    1.868E-02    3.855E-04    1.341E+02    2.696E+02
    95     3.800E+04    2.203E-02    4.545E-04   -1.646E+02   -2.769E+01
    96     3.840E+04    1.815E-02    3.744E-04    1.575E+02    2.958E+02
    97     3.880E+04    5.100E-03    1.052E-04   -1.366E+02    3.221E+00
    98     3.920E+04    1.507E-02    3.109E-04    3.327E+01    1.745E+02
    99     3.960E+04    2.031E-02    4.190E-04    1.109E+01    1.538E+02


     TOTAL HARMONIC DISTORTION =   2.824518E+00 PERCENT

**** 04/21/19 19:40:55 ********* PSpice 9.2 (Mar 2000) ******** ID# 1 ********

 * D:\GIT\MAI\Invertor\Orcad\10_DC_sweep_27v_10-500ohm\test.sch


 ****     FOURIER ANALYSIS                 TEMPERATURE =   27.000 DEG C

 ****     CURRENT STEP                     PARAM RN =  400   


******************************************************************************



FOURIER COMPONENTS OF TRANSIENT RESPONSE V(V_sence)



 DC COMPONENT =  -2.046176E-01

 HARMONIC   FREQUENCY    FOURIER    NORMALIZED    PHASE        NORMALIZED
    NO         (HZ)     COMPONENT    COMPONENT    (DEG)       PHASE (DEG)

     1     4.000E+02    4.847E+01    1.000E+00   -1.446E+00    0.000E+00
     2     8.000E+02    7.699E-02    1.588E-03   -3.134E+01   -2.845E+01
     3     1.200E+03    4.297E-02    8.864E-04   -3.273E+01   -2.839E+01
     4     1.600E+03    8.365E-03    1.726E-04    3.920E+01    4.498E+01
     5     2.000E+03    1.163E-02    2.399E-04    1.567E+02    1.639E+02
     6     2.400E+03    2.217E-02    4.575E-04   -1.180E+02   -1.093E+02
     7     2.800E+03    1.507E-02    3.110E-04   -2.931E+01   -1.919E+01
     8     3.200E+03    1.953E-02    4.029E-04   -9.247E+01   -8.090E+01
     9     3.600E+03    1.067E-02    2.200E-04   -9.600E+00    3.413E+00
    10     4.000E+03    1.973E-02    4.071E-04    1.763E+02    1.908E+02
    11     4.400E+03    6.387E-03    1.318E-04   -9.721E+01   -8.130E+01
    12     4.800E+03    1.817E-02    3.748E-04   -1.119E+02   -9.453E+01
    13     5.200E+03    4.081E-03    8.419E-05    9.534E+01    1.141E+02
    14     5.600E+03    1.576E-02    3.251E-04   -1.000E+02   -7.980E+01
    15     6.000E+03    6.464E-03    1.333E-04   -9.943E+01   -7.774E+01
    16     6.400E+03    1.298E-02    2.678E-04   -6.971E+01   -4.658E+01
    17     6.800E+03    6.663E-03    1.375E-04   -1.334E+02   -1.088E+02
    18     7.200E+03    2.510E-02    5.178E-04   -7.741E+01   -5.138E+01
    19     7.600E+03    2.234E-02    4.609E-04   -3.348E+01   -6.011E+00
    20     8.000E+03    6.964E-03    1.437E-04   -1.429E+02   -1.140E+02
    21     8.400E+03    2.122E-02    4.378E-04   -1.140E+02   -8.366E+01
    22     8.800E+03    3.165E-02    6.529E-04   -2.507E+01    6.737E+00
    23     9.200E+03    9.703E-03    2.002E-04    1.339E+02    1.671E+02
    24     9.600E+03    1.910E-02    3.941E-04   -7.183E+01   -3.713E+01
    25     1.000E+04    8.588E-03    1.772E-04   -1.316E+02   -9.543E+01
    26     1.040E+04    1.504E-02    3.103E-04   -5.650E+01   -1.891E+01
    27     1.080E+04    1.795E-02    3.704E-04   -1.245E+02   -8.546E+01
    28     1.120E+04    1.401E-02    2.889E-04   -1.644E+01    2.404E+01
    29     1.160E+04    9.544E-03    1.969E-04   -5.553E+01   -1.360E+01
    30     1.200E+04    5.815E-03    1.200E-04    1.008E+02    1.442E+02
    31     1.240E+04    2.460E-02    5.076E-04   -1.147E+02   -6.988E+01
    32     1.280E+04    1.206E-02    2.487E-04   -6.146E+01   -1.519E+01
    33     1.320E+04    2.689E-02    5.546E-04   -6.073E+01   -1.302E+01
    34     1.360E+04    3.921E-02    8.089E-04   -1.898E+01    3.018E+01
    35     1.400E+04    2.083E-02    4.298E-04   -1.156E+02   -6.502E+01
    36     1.440E+04    1.633E-01    3.368E-03    1.739E+02    2.259E+02
    37     1.480E+04    9.287E-02    1.916E-03   -7.830E+00    4.567E+01
    38     1.520E+04    3.490E-01    7.199E-03   -2.781E+01    2.713E+01
    39     1.560E+04    2.639E-01    5.443E-03    1.569E+02    2.133E+02
    40     1.600E+04    4.547E-01    9.380E-03    1.410E+02    1.988E+02
    41     1.640E+04    6.234E-01    1.286E-02   -3.783E+01    2.145E+01
    42     1.680E+04    2.549E-01    5.258E-03   -3.310E+01    2.763E+01
    43     1.720E+04    3.006E-01    6.201E-03    1.331E+02    1.953E+02
    44     1.760E+04    2.034E-01    4.195E-03   -8.597E+01   -2.236E+01
    45     1.800E+04    5.670E-01    1.170E-02    1.264E+02    1.914E+02
    46     1.840E+04    3.182E-01    6.565E-03   -6.799E+01   -1.475E+00
    47     1.880E+04    9.098E-02    1.877E-03    4.890E+01    1.169E+02
    48     1.920E+04    4.031E-01    8.317E-03   -5.398E+01    1.542E+01
    49     1.960E+04    1.600E-01    3.301E-03   -3.302E+01    3.783E+01
    50     2.000E+04    1.454E-01    3.000E-03   -5.337E+01    1.892E+01
    51     2.040E+04    4.035E-02    8.324E-04    1.241E+02    1.978E+02
    52     2.080E+04    9.769E-02    2.015E-03    1.417E+02    2.169E+02
    53     2.120E+04    1.634E-01    3.371E-03    1.320E+02    2.086E+02
    54     2.160E+04    1.716E-01    3.540E-03    1.353E+02    2.134E+02
    55     2.200E+04    1.667E-01    3.440E-03    1.293E+02    2.089E+02
    56     2.240E+04    1.482E-01    3.058E-03    1.299E+02    2.109E+02
    57     2.280E+04    1.292E-01    2.665E-03    1.255E+02    2.079E+02
    58     2.320E+04    9.765E-02    2.014E-03    1.280E+02    2.118E+02
    59     2.360E+04    7.436E-02    1.534E-03    1.241E+02    2.094E+02
    60     2.400E+04    5.638E-02    1.163E-03    1.247E+02    2.115E+02
    61     2.440E+04    4.889E-02    1.008E-03    1.325E+02    2.207E+02
    62     2.480E+04    3.000E-02    6.188E-04    1.360E+02    2.256E+02
    63     2.520E+04    3.040E-02    6.271E-04    1.367E+02    2.278E+02
    64     2.560E+04    2.690E-02    5.550E-04    1.423E+02    2.349E+02
    65     2.600E+04    2.259E-02    4.659E-04    1.451E+02    2.391E+02
    66     2.640E+04    2.231E-02    4.602E-04    1.297E+02    2.251E+02
    67     2.680E+04    2.097E-02    4.325E-04    1.413E+02    2.382E+02
    68     2.720E+04    1.948E-02    4.019E-04    1.284E+02    2.267E+02
    69     2.760E+04    1.536E-02    3.169E-04    1.284E+02    2.281E+02
    70     2.800E+04    1.586E-02    3.273E-04    1.170E+02    2.182E+02
    71     2.840E+04    1.437E-02    2.965E-04    1.259E+02    2.285E+02
    72     2.880E+04    1.940E-02    4.002E-04    1.432E+02    2.473E+02
    73     2.920E+04    2.143E-02    4.421E-04    1.356E+02    2.411E+02
    74     2.960E+04    6.130E-03    1.265E-04   -3.726E+00    1.033E+02
    75     3.000E+04    8.505E-03    1.754E-04   -5.722E+01    5.122E+01
    76     3.040E+04    5.519E-02    1.138E-03    1.352E+02    2.451E+02
    77     3.080E+04    3.635E-02    7.499E-04    1.181E+02    2.295E+02
    78     3.120E+04    6.849E-02    1.413E-03   -5.959E+01    5.319E+01
    79     3.160E+04    1.050E-02    2.166E-04   -1.478E+02   -3.357E+01
    80     3.200E+04    1.002E-01    2.068E-03    1.135E+02    2.291E+02
    81     3.240E+04    1.409E-02    2.906E-04   -1.184E+02   -1.274E+00
    82     3.280E+04    4.978E-02    1.027E-03   -7.786E+01    4.070E+01
    83     3.320E+04    2.483E-02    5.122E-04    8.167E+01    2.017E+02
    84     3.360E+04    2.282E-02    4.708E-04   -1.553E+02   -3.384E+01
    85     3.400E+04    4.050E-02    8.354E-04    1.055E+02    2.284E+02
    86     3.440E+04    3.682E-02    7.595E-04    9.359E+01    2.179E+02
    87     3.480E+04    4.158E-02    8.577E-04   -1.039E+02    2.191E+01
    88     3.520E+04    1.737E-02    3.584E-04   -1.946E+00    1.253E+02
    89     3.560E+04    3.385E-02    6.982E-04   -1.196E+02    9.052E+00
    90     3.600E+04    2.133E-02    4.401E-04    9.577E+01    2.259E+02
    91     3.640E+04    3.625E-02    7.478E-04    1.083E+02    2.398E+02
    92     3.680E+04    2.558E-02    5.278E-04    1.261E+02    2.591E+02
    93     3.720E+04    1.494E-02    3.081E-04    8.682E+01    2.213E+02
    94     3.760E+04    2.144E-02    4.424E-04   -1.234E+02    1.250E+01
    95     3.800E+04    1.520E-02    3.136E-04   -7.769E+01    5.967E+01
    96     3.840E+04    1.967E-02    4.057E-04   -1.084E+02    3.043E+01
    97     3.880E+04    3.160E-03    6.519E-05    8.142E+01    2.217E+02
    98     3.920E+04    1.183E-02    2.441E-04    1.227E+02    2.644E+02
    99     3.960E+04    1.954E-02    4.031E-04    1.000E+02    2.432E+02


     TOTAL HARMONIC DISTORTION =   2.821678E+00 PERCENT

**** 04/21/19 19:40:55 ********* PSpice 9.2 (Mar 2000) ******** ID# 1 ********

 * D:\GIT\MAI\Invertor\Orcad\10_DC_sweep_27v_10-500ohm\test.sch


 ****     FOURIER ANALYSIS                 TEMPERATURE =   27.000 DEG C

 ****     CURRENT STEP                     PARAM RN =  450   


******************************************************************************



FOURIER COMPONENTS OF TRANSIENT RESPONSE V(V_sence)



 DC COMPONENT =  -2.063349E-01

 HARMONIC   FREQUENCY    FOURIER    NORMALIZED    PHASE        NORMALIZED
    NO         (HZ)     COMPONENT    COMPONENT    (DEG)       PHASE (DEG)

     1     4.000E+02    4.849E+01    1.000E+00   -1.416E+00    0.000E+00
     2     8.000E+02    8.009E-02    1.652E-03   -3.492E+01   -3.209E+01
     3     1.200E+03    4.496E-02    9.274E-04   -2.596E+01   -2.172E+01
     4     1.600E+03    5.157E-03    1.064E-04    1.142E+02    1.198E+02
     5     2.000E+03    4.740E-03    9.777E-05    1.335E+02    1.406E+02
     6     2.400E+03    1.493E-02    3.079E-04   -9.742E+01   -8.892E+01
     7     2.800E+03    1.909E-02    3.938E-04   -1.139E+02   -1.040E+02
     8     3.200E+03    1.319E-02    2.720E-04   -8.816E+00    2.510E+00
     9     3.600E+03    5.549E-03    1.145E-04   -2.718E+01   -1.444E+01
    10     4.000E+03    1.122E-02    2.315E-04   -1.034E+02   -8.929E+01
    11     4.400E+03    5.208E-03    1.074E-04    1.235E+02    1.391E+02
    12     4.800E+03    1.251E-02    2.580E-04   -1.658E+02   -1.488E+02
    13     5.200E+03    9.223E-03    1.902E-04   -1.074E+02   -8.898E+01
    14     5.600E+03    1.416E-02    2.921E-04   -5.275E+01   -3.292E+01
    15     6.000E+03    4.000E-03    8.250E-05   -3.616E+01   -1.492E+01
    16     6.400E+03    1.201E-02    2.477E-04   -8.676E+01   -6.411E+01
    17     6.800E+03    2.859E-03    5.897E-05   -1.745E+02   -1.504E+02
    18     7.200E+03    1.796E-02    3.705E-04   -1.051E+02   -7.962E+01
    19     7.600E+03    1.230E-02    2.538E-04   -1.159E+01    1.531E+01
    20     8.000E+03    1.330E-02    2.743E-04    5.134E+01    7.966E+01
    21     8.400E+03    2.839E-02    5.856E-04   -1.287E+02   -9.893E+01
    22     8.800E+03    4.864E-03    1.003E-04   -1.419E+01    1.695E+01
    23     9.200E+03    1.451E-02    2.993E-04    8.235E+01    1.149E+02
    24     9.600E+03    1.015E-02    2.092E-04   -1.366E+02   -1.026E+02
    25     1.000E+04    8.985E-03    1.853E-04   -1.420E+02   -1.066E+02
    26     1.040E+04    2.608E-02    5.379E-04   -1.358E+02   -9.895E+01
    27     1.080E+04    2.048E-02    4.225E-04   -4.689E+01   -8.662E+00
    28     1.120E+04    7.058E-03    1.456E-04   -5.901E+01   -1.937E+01
    29     1.160E+04    1.289E-02    2.658E-04   -1.101E+02   -6.905E+01
    30     1.200E+04    2.010E-02    4.146E-04   -7.344E+01   -3.096E+01
    31     1.240E+04    2.151E-02    4.437E-04   -1.185E+02   -7.458E+01
    32     1.280E+04    1.930E-02    3.981E-04    1.722E+02    2.175E+02
    33     1.320E+04    7.370E-03    1.520E-04   -6.945E+01   -2.273E+01
    34     1.360E+04    4.113E-02    8.483E-04   -3.210E+01    1.603E+01
    35     1.400E+04    3.140E-02    6.477E-04    1.528E+02    2.024E+02
    36     1.440E+04    1.069E-01    2.204E-03    1.092E+02    1.602E+02
    37     1.480E+04    1.547E-01    3.190E-03   -8.733E+01   -3.495E+01
    38     1.520E+04    2.658E-01    5.482E-03   -8.665E+01   -3.285E+01
    39     1.560E+04    3.696E-01    7.623E-03    9.287E+01    1.481E+02
    40     1.600E+04    2.832E-01    5.841E-03    9.017E+01    1.468E+02
    41     1.640E+04    6.951E-01    1.434E-02   -9.581E+01   -3.776E+01
    42     1.680E+04    4.298E-02    8.864E-04   -1.152E+02   -5.577E+01
    43     1.720E+04    3.755E-01    7.744E-03    7.830E+01    1.392E+02
    44     1.760E+04    1.032E-01    2.128E-03   -1.135E+02   -5.119E+01
    45     1.800E+04    4.978E-01    1.027E-02    6.968E+01    1.334E+02
    46     1.840E+04    4.598E-01    9.483E-03   -1.116E+02   -4.649E+01
    47     1.880E+04    2.511E-02    5.179E-04   -7.754E+01   -1.100E+01
    48     1.920E+04    4.002E-01    8.253E-03   -1.157E+02   -4.773E+01
    49     1.960E+04    3.233E-02    6.668E-04   -8.535E+01   -1.598E+01
    50     2.000E+04    3.051E-02    6.292E-04   -1.461E+02   -7.528E+01
    51     2.040E+04    1.700E-01    3.506E-03    5.863E+01    1.308E+02
    52     2.080E+04    1.933E-01    3.986E-03    6.294E+01    1.366E+02
    53     2.120E+04    2.191E-01    4.519E-03    5.941E+01    1.344E+02
    54     2.160E+04    1.856E-01    3.828E-03    5.815E+01    1.346E+02
    55     2.200E+04    1.622E-01    3.346E-03    5.585E+01    1.337E+02
    56     2.240E+04    1.233E-01    2.544E-03    5.444E+01    1.337E+02
    57     2.280E+04    1.044E-01    2.154E-03    5.653E+01    1.372E+02
    58     2.320E+04    7.507E-02    1.548E-03    5.604E+01    1.382E+02
    59     2.360E+04    5.797E-02    1.196E-03    5.188E+01    1.354E+02
    60     2.400E+04    4.031E-02    8.315E-04    4.098E+01    1.259E+02
    61     2.440E+04    3.146E-02    6.489E-04    5.535E+01    1.417E+02
    62     2.480E+04    1.852E-02    3.820E-04    4.767E+01    1.354E+02
    63     2.520E+04    1.781E-02    3.673E-04    3.809E+01    1.273E+02
    64     2.560E+04    1.317E-02    2.715E-04    5.039E+01    1.410E+02
    65     2.600E+04    1.286E-02    2.653E-04    4.500E+01    1.370E+02
    66     2.640E+04    1.503E-02    3.100E-04    6.079E+01    1.542E+02
    67     2.680E+04    1.042E-02    2.148E-04    4.910E+01    1.440E+02
    68     2.720E+04    1.307E-02    2.696E-04    3.826E+01    1.345E+02
    69     2.760E+04    1.585E-02    3.268E-04    4.964E+01    1.473E+02
    70     2.800E+04    7.839E-03    1.617E-04    4.548E+01    1.446E+02
    71     2.840E+04    8.979E-03    1.852E-04    6.485E+01    1.654E+02
    72     2.880E+04    1.852E-02    3.819E-04    5.649E+01    1.584E+02
    73     2.920E+04    1.059E-02    2.185E-04    4.262E+01    1.460E+02
    74     2.960E+04    1.210E-02    2.495E-04   -1.603E+02   -5.558E+01
    75     3.000E+04    8.269E-03    1.705E-04    5.163E+01    1.578E+02
    76     3.040E+04    4.755E-02    9.807E-04    1.997E+01    1.276E+02
    77     3.080E+04    1.025E-02    2.114E-04    1.558E+02    2.648E+02
    78     3.120E+04    6.058E-02    1.250E-03    1.759E+02    2.863E+02
    79     3.160E+04    5.220E-02    1.077E-03    2.242E+00    1.141E+02
    80     3.200E+04    7.814E-02    1.612E-03   -2.041E+00    1.112E+02
    81     3.240E+04    6.383E-02    1.316E-03    1.671E+02    2.818E+02
    82     3.280E+04    3.364E-02    6.938E-04    1.595E+02    2.756E+02
    83     3.320E+04    4.209E-02    8.681E-04   -2.674E+00    1.148E+02
    84     3.360E+04    7.881E-03    1.625E-04    8.344E+01    2.024E+02
    85     3.400E+04    4.150E-02    8.559E-04   -1.853E+01    1.018E+02
    86     3.440E+04    7.516E-03    1.550E-04    1.297E+02    2.515E+02
    87     3.480E+04    5.543E-02    1.143E-03    1.437E+02    2.668E+02
    88     3.520E+04    1.903E-02    3.925E-04   -1.875E+01    1.058E+02
    89     3.560E+04    1.165E-02    2.402E-04    1.136E+02    2.396E+02
    90     3.600E+04    4.445E-02    9.168E-04   -3.133E+01    9.609E+01
    91     3.640E+04    1.779E-02    3.668E-04   -2.392E+01    1.049E+02
    92     3.680E+04    5.108E-03    1.054E-04    1.060E+02    2.363E+02
    93     3.720E+04    1.325E-02    2.733E-04    1.107E+02    2.424E+02
    94     3.760E+04    3.688E-02    7.606E-04    1.279E+02    2.610E+02
    95     3.800E+04    6.677E-03    1.377E-04    1.022E+02    2.367E+02
    96     3.840E+04    7.283E-03    1.502E-04    8.948E+01    2.254E+02
    97     3.880E+04    2.307E-02    4.758E-04   -3.827E+01    9.906E+01
    98     3.920E+04    2.022E-02    4.171E-04   -2.744E+01    1.113E+02
    99     3.960E+04    1.954E-02    4.030E-04   -4.342E+01    9.674E+01


     TOTAL HARMONIC DISTORTION =   2.802518E+00 PERCENT

**** 04/21/19 19:40:55 ********* PSpice 9.2 (Mar 2000) ******** ID# 1 ********

 * D:\GIT\MAI\Invertor\Orcad\10_DC_sweep_27v_10-500ohm\test.sch


 ****     FOURIER ANALYSIS                 TEMPERATURE =   27.000 DEG C

 ****     CURRENT STEP                     PARAM RN =  500   


******************************************************************************



FOURIER COMPONENTS OF TRANSIENT RESPONSE V(V_sence)



 DC COMPONENT =  -2.056394E-01

 HARMONIC   FREQUENCY    FOURIER    NORMALIZED    PHASE        NORMALIZED
    NO         (HZ)     COMPONENT    COMPONENT    (DEG)       PHASE (DEG)

     1     4.000E+02    4.848E+01    1.000E+00   -1.434E+00    0.000E+00
     2     8.000E+02    7.540E-02    1.555E-03   -3.838E+01   -3.551E+01
     3     1.200E+03    4.043E-02    8.338E-04   -2.640E+01   -2.209E+01
     4     1.600E+03    1.210E-03    2.496E-05    1.304E+02    1.362E+02
     5     2.000E+03    9.187E-03    1.895E-04   -4.940E+01   -4.223E+01
     6     2.400E+03    1.214E-02    2.504E-04   -1.440E+02   -1.353E+02
     7     2.800E+03    2.058E-02    4.245E-04   -7.741E+01   -6.737E+01
     8     3.200E+03    6.733E-03    1.389E-04   -1.997E+01   -8.492E+00
     9     3.600E+03    4.684E-03    9.661E-05    1.340E+02    1.469E+02
    10     4.000E+03    1.755E-02    3.619E-04   -1.220E+02   -1.076E+02
    11     4.400E+03    7.562E-03    1.560E-04   -1.650E+02   -1.493E+02
    12     4.800E+03    1.575E-02    3.249E-04   -9.918E+01   -8.197E+01
    13     5.200E+03    1.540E-02    3.176E-04   -3.278E+01   -1.414E+01
    14     5.600E+03    7.375E-03    1.521E-04   -8.570E+01   -6.563E+01
    15     6.000E+03    1.410E-02    2.908E-04   -7.787E+01   -5.636E+01
    16     6.400E+03    1.381E-02    2.848E-04   -9.122E+01   -6.827E+01
    17     6.800E+03    2.254E-02    4.649E-04   -1.113E+02   -8.695E+01
    18     7.200E+03    8.764E-03    1.808E-04    4.149E+01    6.730E+01
    19     7.600E+03    1.735E-02    3.578E-04    5.884E+01    8.609E+01
    20     8.000E+03    1.392E-02    2.871E-04   -7.900E+01   -5.032E+01
    21     8.400E+03    3.410E-02    7.034E-04   -1.336E+02   -1.035E+02
    22     8.800E+03    2.879E-02    5.938E-04   -1.075E+02   -7.597E+01
    23     9.200E+03    2.886E-04    5.953E-06    1.520E+02    1.850E+02
    24     9.600E+03    2.127E-02    4.387E-04    2.706E+01    6.147E+01
    25     1.000E+04    3.287E-03    6.779E-05   -8.397E+01   -4.812E+01
    26     1.040E+04    1.695E-02    3.496E-04   -9.133E+01   -5.405E+01
    27     1.080E+04    3.640E-02    7.509E-04   -1.339E+02   -9.522E+01
    28     1.120E+04    7.048E-03    1.454E-04   -6.963E+01   -2.947E+01
    29     1.160E+04    1.454E-02    2.999E-04   -1.019E+02   -6.035E+01
    30     1.200E+04    6.851E-03    1.413E-04   -7.498E+01   -3.196E+01
    31     1.240E+04    1.471E-03    3.035E-05    1.399E+01    5.845E+01
    32     1.280E+04    3.278E-02    6.762E-04   -1.268E+02   -8.093E+01
    33     1.320E+04    2.579E-02    5.319E-04   -3.715E+01    1.018E+01
    34     1.360E+04    2.718E-02    5.605E-04   -1.053E+01    3.823E+01
    35     1.400E+04    2.464E-02    5.082E-04    1.028E+02    1.529E+02
    36     1.440E+04    8.852E-02    1.826E-03    1.409E+02    1.925E+02
    37     1.480E+04    1.354E-01    2.793E-03   -5.163E+01    1.430E+00
    38     1.520E+04    2.424E-01    5.000E-03   -4.770E+01    6.795E+00
    39     1.560E+04    3.913E-01    8.070E-03    1.342E+02    1.901E+02
    40     1.600E+04    2.597E-01    5.356E-03    1.345E+02    1.919E+02
    41     1.640E+04    7.198E-01    1.485E-02   -5.146E+01    7.333E+00
    42     1.680E+04    7.283E-02    1.502E-03   -6.878E+01   -8.553E+00
    43     1.720E+04    3.718E-01    7.668E-03    1.244E+02    1.860E+02
    44     1.760E+04    1.164E-01    2.400E-03   -6.439E+01   -1.293E+00
    45     1.800E+04    5.094E-01    1.051E-02    1.216E+02    1.861E+02
    46     1.840E+04    4.330E-01    8.931E-03   -6.519E+01    7.736E-01
    47     1.880E+04    1.155E-02    2.382E-04   -9.888E+01   -3.147E+01
    48     1.920E+04    4.211E-01    8.685E-03   -6.684E+01    1.999E+00
    49     1.960E+04    7.342E-02    1.514E-03   -6.290E+01    7.367E+00
    50     2.000E+04    8.407E-02    1.734E-03   -7.839E+01   -6.682E+00
    51     2.040E+04    1.055E-01    2.177E-03    1.063E+02    1.795E+02
    52     2.080E+04    1.486E-01    3.064E-03    1.069E+02    1.815E+02
    53     2.120E+04    1.898E-01    3.915E-03    1.013E+02    1.773E+02
    54     2.160E+04    1.882E-01    3.882E-03    9.691E+01    1.744E+02
    55     2.200E+04    1.652E-01    3.407E-03    9.561E+01    1.745E+02
    56     2.240E+04    1.364E-01    2.814E-03    9.486E+01    1.752E+02
    57     2.280E+04    1.079E-01    2.225E-03    9.403E+01    1.758E+02
    58     2.320E+04    8.109E-02    1.673E-03    9.270E+01    1.759E+02
    59     2.360E+04    6.662E-02    1.374E-03    8.101E+01    1.656E+02
    60     2.400E+04    4.634E-02    9.558E-04    8.333E+01    1.694E+02
    61     2.440E+04    3.656E-02    7.540E-04    8.459E+01    1.721E+02
    62     2.480E+04    2.851E-02    5.881E-04    9.216E+01    1.811E+02
    63     2.520E+04    2.488E-02    5.132E-04    8.145E+01    1.718E+02
    64     2.560E+04    2.497E-02    5.149E-04    6.826E+01    1.600E+02
    65     2.600E+04    1.945E-02    4.012E-04    7.652E+01    1.697E+02
    66     2.640E+04    1.847E-02    3.809E-04    8.976E+01    1.844E+02
    67     2.680E+04    1.786E-02    3.684E-04    1.099E+02    2.060E+02
    68     2.720E+04    1.688E-02    3.482E-04    9.794E+01    1.955E+02
    69     2.760E+04    1.192E-02    2.459E-04    9.048E+01    1.894E+02
    70     2.800E+04    1.196E-02    2.466E-04    7.246E+01    1.728E+02
    71     2.840E+04    1.343E-02    2.770E-04    6.494E+01    1.668E+02
    72     2.880E+04    1.687E-02    3.479E-04    9.847E+01    2.017E+02
    73     2.920E+04    9.064E-03    1.870E-04    1.082E+02    2.129E+02
    74     2.960E+04    8.218E-03    1.695E-04   -4.863E+01    5.749E+01
    75     3.000E+04    1.317E-02    2.716E-04    7.549E+01    1.830E+02
    76     3.040E+04    4.370E-02    9.013E-04    8.503E+01    1.940E+02
    77     3.080E+04    9.758E-03    2.013E-04   -1.092E+02    1.200E+00
    78     3.120E+04    5.655E-02    1.166E-03   -9.735E+01    1.451E+01
    79     3.160E+04    5.549E-02    1.145E-03    8.151E+01    1.948E+02
    80     3.200E+04    7.673E-02    1.583E-03    7.881E+01    1.935E+02
    81     3.240E+04    6.947E-02    1.433E-03   -9.862E+01    1.754E+01
    82     3.280E+04    3.082E-02    6.357E-04   -1.087E+02    8.857E+00
    83     3.320E+04    4.989E-02    1.029E-03    7.801E+01    1.970E+02
    84     3.360E+04    3.936E-03    8.118E-05    7.892E+01    1.994E+02
    85     3.400E+04    4.378E-02    9.030E-04    7.436E+01    1.963E+02
    86     3.440E+04    3.509E-03    7.238E-05    1.727E+02    2.961E+02
    87     3.480E+04    5.270E-02    1.087E-03   -1.180E+02    6.774E+00
    88     3.520E+04    1.459E-02    3.010E-04    6.193E+01    1.881E+02
    89     3.560E+04    1.219E-02    2.514E-04   -1.171E+02    1.050E+01
    90     3.600E+04    4.588E-02    9.462E-04    6.288E+01    1.919E+02
    91     3.640E+04    2.414E-02    4.979E-04    6.492E+01    1.954E+02
    92     3.680E+04    5.477E-03    1.130E-04    8.462E+01    2.166E+02
    93     3.720E+04    3.384E-03    6.981E-05    1.769E+02    3.103E+02
    94     3.760E+04    3.045E-02    6.281E-04   -1.268E+02    7.995E+00
    95     3.800E+04    5.091E-03    1.050E-04   -1.328E+02    3.467E+00
    96     3.840E+04    1.116E-02    2.301E-04   -1.498E+02   -1.217E+01
    97     3.880E+04    1.761E-02    3.632E-04    5.675E+01    1.959E+02
    98     3.920E+04    1.660E-02    3.425E-04    6.034E+01    2.009E+02
    99     3.960E+04    2.444E-02    5.041E-04    4.044E+01    1.824E+02


     TOTAL HARMONIC DISTORTION =   2.804639E+00 PERCENT


          JOB CONCLUDED

          TOTAL JOB TIME           94.60
