
**** 04/21/19 19:01:47 ********* PSpice 9.2 (Mar 2000) ******** ID# 1 ********

 * D:\GIT\MAI\Invertor\Orcad\9_DC_sweep_18-36v_10ohm\test.sch


 ****     CIRCUIT DESCRIPTION


******************************************************************************




* Schematics Version 9.2
* Sun Apr 21 19:01:47 2019


.PARAM         Ep=18 

** Analysis setup **
.tran 0ns 5ms 2.5ms 1.57u SKIPBP
.four 400 99 V([V_sence])
.STEP  PARAM Ep LIST 
+ 18, 20, 22, 24, 26, 27, 28,  30, 32, 34, 36
.LIB "D:\GIT\MAI\Invertor\Orcad\1_Power_cascade\1STK.lib"


* From [PSPICE NETLIST] section of d:\Program Files\Orcad\PSpice\PSpice.ini:
.lib "D:\Program Files\Orcad\PSpice\UserLib\OPA_2.lib"
.lib "D:\Program Files\Orcad\PSpice\UserLib\MyLib.lib"
.lib "nom.lib"

.INC "test.net"



**** INCLUDING test.net ****
* Schematics Netlist *



R_R2         $N_0002 $N_0001  100k  
R_R3         $N_0004 $N_0003  1k  
X_U1A         0 $N_0002 +15 -15 $N_0001 TL082
R_R4         I_sence $N_0005  1k  
X_U2A         $N_0003 $N_0005 +15 -15 $N_0006 TL082
C_C1         $N_0005 0  100p  
R_R5         $N_0003 $N_0006  100k  
R_R6         $N_0006 $N_0007  10k  
R_R14         $N_0009 $N_0008  10  
E_E1         $N_0010 $N_0011 aa 0 1
L_L1         0 I_sence  5H  
R_R15         I_sence 0  33  
D_D1         $N_0011 $N_0012 Dbreak-X 
E_E2         $N_0008 0 bb 0 1
M_M2         $N_0011 $N_0009 0 0 IRF255
D_D2         0 $N_0011 Dbreak-X 
L_L2         V_sence 0  12mH  
M_M3         $N_0012 $N_0014 $N_0013 $N_0013 IRF255
M_M4         $N_0013 $N_0015 0 0 IRF255
E_E3         $N_0016 $N_0013 bb 0 1
E_E4         $N_0017 0 aa 0 1
R_R16         $N_0015 $N_0017  10  
R_R17         $N_0014 $N_0016  10  
D_D3         0 $N_0013 Dbreak-X 
D_D4         $N_0013 $N_0012 Dbreak-X 
L_L3         $N_0018 $N_0013  50uH  
L_L4         $N_0019 $N_0018  1mH  
Kn_K1         L_L5 L_L1     1
Kn_K2         L_L4 L_L2     1
L_L5         $N_0011 $N_0019  5uH  
E_LIMIT1         $N_0004 0 VALUE {LIMIT(V($N_0001),-1,1)}
C_C2         $N_0007 0  100p  
R_R18         V_sence 0  10  
V_V3         -15 0 -15
V_V4         +15 0 15
V_V1         $N_0020 0  
+SIN 0 5 400 0 0 0
R_R7         $N_0021 +15  10k  
R_R8         0 $N_0021  10k  
R_R9         $N_0022 0  10k  
R_R10         -15 $N_0022  10k  
R_R11         0 bb  10k  
X_U3A         $N_0007 $N_0021 +15 -15 bb TL082
R_R12         0 aa  10k  
X_U4A         $N_0022 $N_0007 +15 -15 aa TL082
R_R1         $N_0020 $N_0002  5k  
R_R22         V_sence $N_0023  5k  
R_R21         $N_0024 $N_0002  5k  
R_R20         $N_0025 $N_0024  5k  
X_U5A         0 $N_0025 +15 -15 $N_0024 TL082
R_R19         V_sence $N_0025  50k  
C_C3         V_sence 0  10u  
C_C4         $N_0025 $N_0023  220p  
M_M1         $N_0012 $N_0026 $N_0011 $N_0011 IRF255
R_R13         $N_0026 $N_0010  10  
V_V2         $N_0012 0 {Ep}

**** RESUMING test.cir ****
.PROBE V(*) I(*) W(*) D(*) NOISE(*) 


.END

**** 04/21/19 19:01:47 ********* PSpice 9.2 (Mar 2000) ******** ID# 1 ********

 * D:\GIT\MAI\Invertor\Orcad\9_DC_sweep_18-36v_10ohm\test.sch


 ****     Diode MODEL PARAMETERS


******************************************************************************




               Dbreak-X        X_U1A.dx        X_U1A.dy        X_U2A.dx        
          IS  100.000000E-12  800.000000E-18  800.000000E-18  800.000000E-18 
          RS     .05            1               1.000000E-03    1            
         CJO  150.000000E-12                   10.000000E-12                 


               X_U2A.dy        X_U3A.dx        X_U3A.dy        X_U4A.dx        
          IS  800.000000E-18  800.000000E-18  800.000000E-18  800.000000E-18 
          RS    1.000000E-03    1               1.000000E-03    1            
         CJO   10.000000E-12                   10.000000E-12                 


               X_U4A.dy        X_U5A.dx        X_U5A.dy        
          IS  800.000000E-18  800.000000E-18  800.000000E-18 
          RS    1.000000E-03    1               1.000000E-03 
         CJO   10.000000E-12                   10.000000E-12 


**** 04/21/19 19:01:47 ********* PSpice 9.2 (Mar 2000) ******** ID# 1 ********

 * D:\GIT\MAI\Invertor\Orcad\9_DC_sweep_18-36v_10ohm\test.sch


 ****     Junction FET MODEL PARAMETERS


******************************************************************************




               X_U1A.jx        X_U2A.jx        X_U3A.jx        X_U4A.jx        
               NJF             NJF             NJF             NJF             
         VTO   -1              -1              -1              -1            
        BETA  984.200000E-06  984.200000E-06  984.200000E-06  984.200000E-06 
          IS    2.500000E-12    2.500000E-12    2.500000E-12    2.500000E-12 


               X_U5A.jx        
               NJF             
         VTO   -1            
        BETA  984.200000E-06 
          IS    2.500000E-12 


**** 04/21/19 19:01:47 ********* PSpice 9.2 (Mar 2000) ******** ID# 1 ********

 * D:\GIT\MAI\Invertor\Orcad\9_DC_sweep_18-36v_10ohm\test.sch


 ****     MOSFET MODEL PARAMETERS


******************************************************************************




               IRF255          
               NMOS            
       LEVEL    3            
           L    2.000000E-06 
           W   28            
         VTO    3.686        
          KP    1.040000E-06 
       GAMMA    0            
         PHI     .6          
      LAMBDA    0            
          RD    1.000000E-03 
          RS     .01         
          RG    7.008        
          RB    6.906000E-03 
         RDS    1.000000E+06 
          IS  562.200000E-09 
          JS    0            
           N    1.833        
          PB    2.532        
        PBSW    2.532        
         CBD    5.886000E-09 
          CJ    0            
        CJSW    0            
          MJ    1.089        
        CGSO   43.180000E-12 
        CGDO    7.890000E-12 
        CGBO    0            
         TOX    2.000000E-06 
          XJ    0            
       UCRIT   10.000000E+03 
       DELTA    0            
         ETA    0            
      DIOMOD    1            
         VFB    0            
        LETA    0            
        WETA    0            
          U0    0            
        TEMP    0            
         VDD    0            
       XPART    0            


**** 04/21/19 19:01:47 ********* PSpice 9.2 (Mar 2000) ******** ID# 1 ********

 * D:\GIT\MAI\Invertor\Orcad\9_DC_sweep_18-36v_10ohm\test.sch


 ****     FOURIER ANALYSIS                 TEMPERATURE =   27.000 DEG C

 ****     CURRENT STEP                     PARAM EP =   18    


******************************************************************************



FOURIER COMPONENTS OF TRANSIENT RESPONSE V(V_sence)



 DC COMPONENT =  -2.882844E-01

 HARMONIC   FREQUENCY    FOURIER    NORMALIZED    PHASE        NORMALIZED
    NO         (HZ)     COMPONENT    COMPONENT    (DEG)       PHASE (DEG)

     1     4.000E+02    4.693E+01    1.000E+00   -1.773E+00    0.000E+00
     2     8.000E+02    4.578E-02    9.755E-04    1.304E+02    1.339E+02
     3     1.200E+03    4.440E-01    9.462E-03    1.313E+00    6.633E+00
     4     1.600E+03    8.808E-02    1.877E-03   -1.361E+02   -1.290E+02
     5     2.000E+03    5.574E-02    1.188E-03   -1.748E+02   -1.660E+02
     6     2.400E+03    4.320E-02    9.206E-04    6.624E+01    7.688E+01
     7     2.800E+03    2.445E-02    5.210E-04   -8.862E+01   -7.621E+01
     8     3.200E+03    3.170E-02    6.756E-04    5.783E+00    1.997E+01
     9     3.600E+03    3.145E-02    6.702E-04    1.645E+02    1.805E+02
    10     4.000E+03    1.564E-02    3.333E-04   -1.759E+02   -1.581E+02
    11     4.400E+03    8.581E-02    1.828E-03    9.115E+01    1.107E+02
    12     4.800E+03    3.977E-02    8.475E-04   -5.976E+01   -3.848E+01
    13     5.200E+03    1.017E-01    2.167E-03   -8.472E+01   -6.166E+01
    14     5.600E+03    1.704E-01    3.631E-03    1.430E+02    1.678E+02
    15     6.000E+03    1.757E-01    3.744E-03    9.873E+01    1.253E+02
    16     6.400E+03    2.739E-01    5.837E-03   -4.045E+01   -1.208E+01
    17     6.800E+03    3.198E-01    6.814E-03   -8.124E+01   -5.109E+01
    18     7.200E+03    3.861E-01    8.227E-03    1.389E+02    1.708E+02
    19     7.600E+03    4.420E-01    9.418E-03    1.098E+02    1.435E+02
    20     8.000E+03    5.329E-01    1.136E-02   -4.785E+01   -1.238E+01
    21     8.400E+03    4.506E-01    9.603E-03   -4.687E+01   -9.629E+00
    22     8.800E+03    4.850E-01    1.033E-02    1.270E+02    1.660E+02
    23     9.200E+03    2.792E-01    5.950E-03    1.657E+02    2.065E+02
    24     9.600E+03    1.811E-01    3.860E-03   -9.077E+01   -4.821E+01
    25     1.000E+04    1.852E-01    3.947E-03    7.826E+01    1.226E+02
    26     1.040E+04    2.850E-01    6.072E-03   -7.074E+00    3.903E+01
    27     1.080E+04    2.235E-01    4.763E-03   -3.897E+01    8.914E+00
    28     1.120E+04    2.646E-01    5.639E-03    1.511E+02    2.007E+02
    29     1.160E+04    1.790E-01    3.815E-03   -1.367E+02   -8.531E+01
    30     1.200E+04    1.850E-01    3.942E-03   -1.303E+02   -7.713E+01
    31     1.240E+04    1.172E-01    2.496E-03    1.374E+02    1.924E+02
    32     1.280E+04    1.833E-01    3.905E-03   -2.305E+01    3.370E+01
    33     1.320E+04    1.631E-01    3.476E-03    5.990E+01    1.184E+02
    34     1.360E+04    2.779E-01    5.921E-03    5.340E+01    1.137E+02
    35     1.400E+04    1.578E-01    3.362E-03   -4.231E+01    1.976E+01
    36     1.440E+04    1.964E-01    4.186E-03   -1.775E+02   -1.137E+02
    37     1.480E+04    1.245E-01    2.653E-03   -1.068E+02   -4.115E+01
    38     1.520E+04    1.052E-01    2.241E-03   -9.956E+01   -3.217E+01
    39     1.560E+04    1.226E-01    2.613E-03   -1.476E+02   -7.846E+01
    40     1.600E+04    2.984E-01    6.358E-03   -9.541E+01   -2.447E+01
    41     1.640E+04    1.084E-01    2.310E-03    1.393E+02    2.120E+02
    42     1.680E+04    1.014E-01    2.160E-03    2.555E+01    1.000E+02
    43     1.720E+04    1.929E-01    4.110E-03    1.507E+02    2.270E+02
    44     1.760E+04    1.491E-01    3.176E-03    7.861E+01    1.566E+02
    45     1.800E+04    4.847E-02    1.033E-03   -1.381E+02   -5.833E+01
    46     1.840E+04    1.631E-01    3.474E-03    9.598E+01    1.776E+02
    47     1.880E+04    1.473E-01    3.139E-03   -1.568E+02   -7.347E+01
    48     1.920E+04    2.114E-01    4.505E-03    8.131E+01    1.664E+02
    49     1.960E+04    1.576E-01    3.359E-03   -1.428E+02   -5.588E+01
    50     2.000E+04    8.492E-02    1.809E-03    1.370E+01    1.024E+02
    51     2.040E+04    3.811E-02    8.121E-04   -1.005E+02   -1.003E+01
    52     2.080E+04    7.047E-02    1.502E-03   -1.984E+01    7.238E+01
    53     2.120E+04    2.482E-02    5.289E-04   -4.336E+01    5.063E+01
    54     2.160E+04    7.230E-02    1.541E-03   -2.763E+01    6.813E+01
    55     2.200E+04    3.818E-02    8.136E-04   -1.576E+02   -6.003E+01
    56     2.240E+04    5.595E-02    1.192E-03    9.450E+00    1.088E+02
    57     2.280E+04    1.216E-01    2.592E-03    8.987E+00    1.101E+02
    58     2.320E+04    8.743E-02    1.863E-03   -1.203E+01    9.083E+01
    59     2.360E+04    8.009E-02    1.707E-03    5.095E+01    1.556E+02
    60     2.400E+04    1.671E-02    3.562E-04   -2.414E+01    8.226E+01
    61     2.440E+04    2.849E-02    6.070E-04   -3.170E+01    7.648E+01
    62     2.480E+04    5.870E-02    1.251E-03    6.597E+01    1.759E+02
    63     2.520E+04    3.117E-02    6.642E-04    4.804E+01    1.598E+02
    64     2.560E+04    2.434E-02    5.187E-04    2.164E+01    1.351E+02
    65     2.600E+04    4.487E-02    9.562E-04    5.119E+01    1.665E+02
    66     2.640E+04    3.941E-02    8.397E-04    8.800E+01    2.050E+02
    67     2.680E+04    5.446E-02    1.161E-03    5.907E+01    1.779E+02
    68     2.720E+04    2.273E-02    4.843E-04    3.237E+01    1.530E+02
    69     2.760E+04    2.722E-02    5.800E-04   -1.325E+02   -1.015E+01
    70     2.800E+04    2.119E-02    4.515E-04   -3.572E+01    8.842E+01
    71     2.840E+04    2.534E-02    5.400E-04   -4.173E+01    8.418E+01
    72     2.880E+04    1.942E-02    4.139E-04    8.288E+01    2.106E+02
    73     2.920E+04    1.415E-02    3.016E-04    5.845E+01    1.879E+02
    74     2.960E+04    2.274E-02    4.846E-04    1.161E+02    2.473E+02
    75     3.000E+04    5.608E-02    1.195E-03    8.952E+01    2.225E+02
    76     3.040E+04    1.199E-02    2.555E-04   -2.365E+01    1.111E+02
    77     3.080E+04    7.754E-03    1.652E-04   -2.120E+01    1.154E+02
    78     3.120E+04    2.275E-02    4.849E-04    6.095E+01    1.993E+02
    79     3.160E+04    5.662E-03    1.207E-04   -1.055E+02    3.464E+01
    80     3.200E+04    6.238E-03    1.329E-04    6.755E+01    2.094E+02
    81     3.240E+04    1.421E-02    3.028E-04   -3.445E+01    1.092E+02
    82     3.280E+04    4.525E-02    9.642E-04    1.456E+00    1.469E+02
    83     3.320E+04    1.879E-02    4.003E-04   -7.516E-01    1.464E+02
    84     3.360E+04    2.171E-02    4.626E-04   -1.579E+02   -8.929E+00
    85     3.400E+04    1.831E-02    3.901E-04    4.231E+01    1.931E+02
    86     3.440E+04    2.192E-02    4.671E-04   -1.744E+02   -2.184E+01
    87     3.480E+04    3.127E-03    6.663E-05   -6.987E+01    8.441E+01
    88     3.520E+04    5.758E-03    1.227E-04    1.311E+02    2.872E+02
    89     3.560E+04    1.549E-02    3.302E-04    1.638E+02    3.216E+02
    90     3.600E+04    1.181E-02    2.517E-04    6.127E+00    1.657E+02
    91     3.640E+04    5.445E-03    1.160E-04    5.982E+01    2.212E+02
    92     3.680E+04    4.316E-03    9.198E-05    8.585E+01    2.490E+02
    93     3.720E+04    5.850E-03    1.247E-04    1.340E+02    2.989E+02
    94     3.760E+04    7.310E-03    1.558E-04   -2.250E+01    1.442E+02
    95     3.800E+04    1.077E-02    2.295E-04    5.070E+01    2.192E+02
    96     3.840E+04    4.004E-03    8.531E-05    1.627E+02    3.329E+02
    97     3.880E+04    1.282E-02    2.732E-04    3.674E+01    2.088E+02
    98     3.920E+04    2.003E-02    4.269E-04    9.039E+01    2.642E+02
    99     3.960E+04    9.533E-03    2.031E-04    7.117E+01    2.467E+02


     TOTAL HARMONIC DISTORTION =   3.419767E+00 PERCENT

**** 04/21/19 19:01:47 ********* PSpice 9.2 (Mar 2000) ******** ID# 1 ********

 * D:\GIT\MAI\Invertor\Orcad\9_DC_sweep_18-36v_10ohm\test.sch


 ****     FOURIER ANALYSIS                 TEMPERATURE =   27.000 DEG C

 ****     CURRENT STEP                     PARAM EP =   20    


******************************************************************************



FOURIER COMPONENTS OF TRANSIENT RESPONSE V(V_sence)



 DC COMPONENT =  -2.852363E-01

 HARMONIC   FREQUENCY    FOURIER    NORMALIZED    PHASE        NORMALIZED
    NO         (HZ)     COMPONENT    COMPONENT    (DEG)       PHASE (DEG)

     1     4.000E+02    4.717E+01    1.000E+00   -1.739E+00    0.000E+00
     2     8.000E+02    4.234E-02    8.977E-04    1.734E+02    1.768E+02
     3     1.200E+03    3.185E-01    6.752E-03   -4.738E-01    4.744E+00
     4     1.600E+03    8.439E-02    1.789E-03   -1.425E+02   -1.355E+02
     5     2.000E+03    2.718E-02    5.762E-04   -1.551E+02   -1.464E+02
     6     2.400E+03    5.246E-02    1.112E-03    4.416E+01    5.459E+01
     7     2.800E+03    2.428E-02    5.147E-04   -1.258E+02   -1.136E+02
     8     3.200E+03    3.099E-02    6.569E-04    2.467E+01    3.858E+01
     9     3.600E+03    5.634E-02    1.194E-03    1.132E+02    1.288E+02
    10     4.000E+03    1.155E-02    2.448E-04   -1.587E+02   -1.413E+02
    11     4.400E+03    2.386E-02    5.059E-04    6.346E+01    8.259E+01
    12     4.800E+03    1.530E-02    3.243E-04    1.509E+02    1.718E+02
    13     5.200E+03    2.401E-02    5.091E-04   -1.765E+02   -1.539E+02
    14     5.600E+03    3.749E-02    7.949E-04    1.375E+02    1.619E+02
    15     6.000E+03    1.632E-02    3.459E-04   -5.659E+01   -3.050E+01
    16     6.400E+03    4.624E-02    9.803E-04   -7.270E+01   -4.487E+01
    17     6.800E+03    6.709E-02    1.422E-03    1.680E+02    1.976E+02
    18     7.200E+03    6.854E-02    1.453E-03    1.129E+02    1.443E+02
    19     7.600E+03    1.360E-01    2.883E-03   -1.276E+01    2.028E+01
    20     8.000E+03    2.067E-01    4.382E-03   -7.426E+01   -3.948E+01
    21     8.400E+03    2.267E-01    4.806E-03    1.533E+02    1.898E+02
    22     8.800E+03    3.534E-01    7.492E-03    1.085E+02    1.467E+02
    23     9.200E+03    3.985E-01    8.449E-03   -3.082E+01    9.176E+00
    24     9.600E+03    4.437E-01    9.407E-03   -5.518E+01   -1.344E+01
    25     1.000E+04    5.121E-01    1.086E-02    1.428E+02    1.862E+02
    26     1.040E+04    4.184E-01    8.871E-03    1.467E+02    1.920E+02
    27     1.080E+04    4.007E-01    8.495E-03   -4.888E+01   -1.924E+00
    28     1.120E+04    2.444E-01    5.181E-03    1.634E+01    6.503E+01
    29     1.160E+04    1.724E-01    3.655E-03    5.906E+01    1.095E+02
    30     1.200E+04    2.282E-01    4.837E-03   -8.473E+01   -3.255E+01
    31     1.240E+04    3.247E-01    6.883E-03   -1.795E+02   -1.256E+02
    32     1.280E+04    1.958E-01    4.151E-03   -1.725E+02   -1.168E+02
    33     1.320E+04    2.063E-01    4.373E-03   -6.732E+01   -9.932E+00
    34     1.360E+04    1.724E-01    3.654E-03    7.456E+01    1.337E+02
    35     1.400E+04    2.717E-01    5.761E-03    2.952E+01    9.039E+01
    36     1.440E+04    1.494E-01    3.167E-03    6.697E+00    6.931E+01
    37     1.480E+04    1.870E-01    3.965E-03    9.758E+01    1.619E+02
    38     1.520E+04    1.819E-01    3.857E-03   -8.358E+01   -1.749E+01
    39     1.560E+04    1.916E-01    4.062E-03   -1.446E+02   -7.674E+01
    40     1.600E+04    1.040E-01    2.205E-03   -1.370E+02   -6.744E+01
    41     1.640E+04    2.987E-01    6.332E-03   -9.435E+01   -2.304E+01
    42     1.680E+04    1.291E-01    2.737E-03    1.723E+02    2.453E+02
    43     1.720E+04    1.428E-01    3.027E-03   -8.721E+01   -1.243E+01
    44     1.760E+04    1.740E-01    3.688E-03    1.162E+02    1.927E+02
    45     1.800E+04    1.043E-01    2.211E-03    3.234E+01    1.106E+02
    46     1.840E+04    1.796E-01    3.807E-03   -1.607E+02   -8.071E+01
    47     1.880E+04    1.889E-01    4.005E-03    8.244E+01    1.642E+02
    48     1.920E+04    1.611E-01    3.416E-03    1.496E+02    2.331E+02
    49     1.960E+04    1.423E-01    3.016E-03    6.250E+01    1.477E+02
    50     2.000E+04    2.045E-01    4.336E-03   -1.474E+02   -6.047E+01
    51     2.040E+04    1.267E-01    2.687E-03    1.254E+01    1.012E+02
    52     2.080E+04    1.127E-01    2.389E-03    1.588E+02    2.492E+02
    53     2.120E+04    5.259E-02    1.115E-03   -1.097E+02   -1.751E+01
    54     2.160E+04    2.143E-02    4.544E-04    9.342E+01    1.873E+02
    55     2.200E+04    1.174E-01    2.488E-03   -2.984E+01    6.581E+01
    56     2.240E+04    5.899E-02    1.251E-03   -3.816E+01    5.923E+01
    57     2.280E+04    6.157E-02    1.305E-03   -2.215E+01    7.698E+01
    58     2.320E+04    5.221E-02    1.107E-03    2.549E+01    1.264E+02
    59     2.360E+04    3.871E-02    8.207E-04   -1.059E+02   -3.308E+00
    60     2.400E+04    7.282E-02    1.544E-03    1.464E+01    1.190E+02
    61     2.440E+04    7.781E-02    1.650E-03    2.320E+01    1.293E+02
    62     2.480E+04    7.733E-02    1.640E-03    1.030E+01    1.181E+02
    63     2.520E+04    8.490E-02    1.800E-03    3.555E+01    1.451E+02
    64     2.560E+04    1.559E-02    3.306E-04    6.764E+00    1.181E+02
    65     2.600E+04    2.759E-02    5.850E-04    1.660E+02    2.791E+02
    66     2.640E+04    4.708E-02    9.981E-04    4.690E+01    1.617E+02
    67     2.680E+04    2.803E-02    5.942E-04   -4.158E-01    1.161E+02
    68     2.720E+04    1.815E-02    3.848E-04    9.776E+01    2.160E+02
    69     2.760E+04    6.611E-02    1.402E-03    7.581E+01    1.958E+02
    70     2.800E+04    3.835E-02    8.131E-04    4.959E+01    1.713E+02
    71     2.840E+04    4.618E-02    9.790E-04    3.925E+01    1.627E+02
    72     2.880E+04    1.039E-02    2.202E-04   -1.548E+02   -2.963E+01
    73     2.920E+04    4.333E-02    9.187E-04   -1.130E+02    1.392E+01
    74     2.960E+04    3.545E-02    7.516E-04   -6.043E+00    1.227E+02
    75     3.000E+04    9.331E-03    1.978E-04    2.831E+01    1.587E+02
    76     3.040E+04    2.060E-02    4.368E-04    1.120E+02    2.442E+02
    77     3.080E+04    3.046E-02    6.458E-04    7.149E+00    1.411E+02
    78     3.120E+04    2.091E-03    4.433E-05    6.926E+01    2.049E+02
    79     3.160E+04    4.680E-02    9.923E-04    9.663E+01    2.340E+02
    80     3.200E+04    2.169E-02    4.599E-04    7.997E+01    2.191E+02
    81     3.240E+04    1.132E-02    2.399E-04    9.611E+01    2.370E+02
    82     3.280E+04    1.844E-02    3.910E-04    3.453E+01    1.771E+02
    83     3.320E+04    2.079E-02    4.407E-04   -4.904E+01    9.531E+01
    84     3.360E+04    3.749E-02    7.948E-04   -2.597E+00    1.435E+02
    85     3.400E+04    5.248E-03    1.113E-04   -2.443E+01    1.234E+02
    86     3.440E+04    4.446E-03    9.427E-05   -1.257E+02    2.385E+01
    87     3.480E+04    1.935E-02    4.102E-04    1.307E+01    1.644E+02
    88     3.520E+04    1.077E-02    2.284E-04    1.123E+02    2.654E+02
    89     3.560E+04    3.589E-02    7.610E-04   -1.772E+01    1.371E+02
    90     3.600E+04    6.613E-03    1.402E-04    1.457E+02    3.022E+02
    91     3.640E+04    1.976E-02    4.190E-04    1.533E+02    3.116E+02
    92     3.680E+04    3.023E-03    6.409E-05    1.568E+01    1.757E+02
    93     3.720E+04    1.011E-02    2.144E-04   -1.370E+02    2.475E+01
    94     3.760E+04    2.266E-03    4.804E-05   -8.601E+01    7.746E+01
    95     3.800E+04    1.509E-02    3.199E-04    8.570E+01    2.509E+02
    96     3.840E+04    1.748E-03    3.706E-05    3.825E+01    2.052E+02
    97     3.880E+04    1.368E-02    2.901E-04    2.728E+01    1.960E+02
    98     3.920E+04    1.305E-02    2.767E-04    5.146E+01    2.219E+02
    99     3.960E+04    4.211E-03    8.928E-05   -1.087E+02    6.352E+01


     TOTAL HARMONIC DISTORTION =   3.231637E+00 PERCENT

**** 04/21/19 19:01:47 ********* PSpice 9.2 (Mar 2000) ******** ID# 1 ********

 * D:\GIT\MAI\Invertor\Orcad\9_DC_sweep_18-36v_10ohm\test.sch


 ****     FOURIER ANALYSIS                 TEMPERATURE =   27.000 DEG C

 ****     CURRENT STEP                     PARAM EP =   22    


******************************************************************************



FOURIER COMPONENTS OF TRANSIENT RESPONSE V(V_sence)



 DC COMPONENT =  -2.797491E-01

 HARMONIC   FREQUENCY    FOURIER    NORMALIZED    PHASE        NORMALIZED
    NO         (HZ)     COMPONENT    COMPONENT    (DEG)       PHASE (DEG)

     1     4.000E+02    4.730E+01    1.000E+00   -1.727E+00    0.000E+00
     2     8.000E+02    2.897E-02    6.126E-04   -1.406E+02   -1.371E+02
     3     1.200E+03    2.695E-01    5.699E-03    1.888E+00    7.068E+00
     4     1.600E+03    7.356E-02    1.555E-03   -1.564E+02   -1.495E+02
     5     2.000E+03    2.845E-02    6.014E-04   -1.386E+02   -1.300E+02
     6     2.400E+03    6.525E-02    1.379E-03    5.372E+01    6.408E+01
     7     2.800E+03    1.278E-02    2.701E-04    1.557E+02    1.678E+02
     8     3.200E+03    4.062E-02    8.588E-04    2.985E+01    4.366E+01
     9     3.600E+03    5.963E-02    1.261E-03    1.178E+02    1.334E+02
    10     4.000E+03    1.902E-02    4.021E-04    1.527E+02    1.700E+02
    11     4.400E+03    4.036E-02    8.533E-04    6.706E+01    8.606E+01
    12     4.800E+03    1.756E-02    3.713E-04   -1.695E+02   -1.488E+02
    13     5.200E+03    2.591E-02    5.478E-04   -1.438E+02   -1.214E+02
    14     5.600E+03    9.344E-03    1.976E-04    8.605E+01    1.102E+02
    15     6.000E+03    9.837E-03    2.080E-04   -7.294E+01   -4.704E+01
    16     6.400E+03    2.171E-02    4.590E-04   -7.644E+01   -4.881E+01
    17     6.800E+03    2.382E-02    5.036E-04    1.128E+02    1.422E+02
    18     7.200E+03    1.247E-02    2.637E-04    1.529E+02    1.840E+02
    19     7.600E+03    6.179E-02    1.306E-03    7.933E+00    4.074E+01
    20     8.000E+03    1.699E-02    3.591E-04   -6.754E+01   -3.301E+01
    21     8.400E+03    7.069E-02    1.495E-03   -1.670E+02   -1.307E+02
    22     8.800E+03    8.380E-02    1.772E-03    1.224E+02    1.604E+02
    23     9.200E+03    1.634E-01    3.454E-03    1.071E+01    5.042E+01
    24     9.600E+03    1.745E-01    3.690E-03   -5.270E+01   -1.126E+01
    25     1.000E+04    3.518E-01    7.437E-03   -1.774E+02   -1.342E+02
    26     1.040E+04    2.135E-01    4.513E-03    1.419E+02    1.868E+02
    27     1.080E+04    5.985E-01    1.265E-02    4.093E+00    5.071E+01
    28     1.120E+04    1.734E-01    3.666E-03   -1.616E+01    3.219E+01
    29     1.160E+04    6.505E-01    1.375E-02   -1.693E+02   -1.193E+02
    30     1.200E+04    1.069E-01    2.260E-03   -1.244E+02   -7.264E+01
    31     1.240E+04    3.789E-01    8.012E-03    1.169E+01    6.522E+01
    32     1.280E+04    2.747E-01    5.808E-03    1.036E+02    1.588E+02
    33     1.320E+04    1.533E-01    3.242E-03    4.969E+01    1.067E+02
    34     1.360E+04    1.749E-01    3.698E-03   -7.039E+01   -1.169E+01
    35     1.400E+04    4.172E-01    8.820E-03   -1.478E+02   -8.740E+01
    36     1.440E+04    1.767E-01    3.736E-03   -6.737E+01   -5.207E+00
    37     1.480E+04    8.529E-02    1.803E-03   -8.330E+01   -1.941E+01
    38     1.520E+04    2.543E-01    5.376E-03    1.129E+02    1.785E+02
    39     1.560E+04    2.571E-01    5.436E-03    4.872E+01    1.161E+02
    40     1.600E+04    2.474E-01    5.230E-03    1.130E+02    1.821E+02
    41     1.640E+04    1.790E-01    3.784E-03    9.143E+01    1.622E+02
    42     1.680E+04    1.375E-01    2.908E-03   -2.851E+01    4.401E+01
    43     1.720E+04    1.178E-01    2.490E-03    1.662E+02    2.404E+02
    44     1.760E+04    2.946E-01    6.229E-03   -3.571E+01    4.026E+01
    45     1.800E+04    8.680E-02    1.835E-03   -1.098E+02   -3.207E+01
    46     1.840E+04    2.015E-01    4.260E-03   -2.393E+01    5.549E+01
    47     1.880E+04    1.404E-01    2.968E-03   -9.447E+01   -1.332E+01
    48     1.920E+04    1.260E-01    2.664E-03    5.699E+01    1.399E+02
    49     1.960E+04    1.533E-01    3.241E-03   -9.272E+01   -8.118E+00
    50     2.000E+04    1.150E-01    2.431E-03    5.641E+01    1.427E+02
    51     2.040E+04    2.250E-01    4.758E-03   -1.449E+02   -5.681E+01
    52     2.080E+04    1.005E-01    2.125E-03    9.836E+01    1.881E+02
    53     2.120E+04    1.067E-01    2.257E-03   -1.395E+02   -4.794E+01
    54     2.160E+04    8.798E-02    1.860E-03   -5.860E+01    3.464E+01
    55     2.200E+04    2.087E-01    4.412E-03   -1.710E+02   -7.602E+01
    56     2.240E+04    1.262E-01    2.668E-03   -1.273E+02   -3.063E+01
    57     2.280E+04    5.710E-02    1.207E-03   -6.116E+01    3.725E+01
    58     2.320E+04    5.596E-02    1.183E-03   -9.355E+01    6.599E+00
    59     2.360E+04    4.650E-02    9.831E-04   -1.483E+02   -4.645E+01
    60     2.400E+04    1.440E-01    3.044E-03   -9.112E+01    1.248E+01
    61     2.440E+04    6.570E-02    1.389E-03   -7.807E+01    2.726E+01
    62     2.480E+04    2.340E-02    4.947E-04   -1.593E+02   -5.221E+01
    63     2.520E+04    7.091E-02    1.499E-03   -4.966E+00    1.038E+02
    64     2.560E+04    9.624E-03    2.035E-04    3.852E+01    1.490E+02
    65     2.600E+04    1.922E-02    4.064E-04   -8.663E+01    2.560E+01
    66     2.640E+04    6.370E-02    1.347E-03   -5.137E+01    6.259E+01
    67     2.680E+04    2.881E-02    6.091E-04   -6.704E+01    4.864E+01
    68     2.720E+04    2.147E-02    4.538E-04    1.105E+02    2.279E+02
    69     2.760E+04    1.792E-02    3.789E-04    5.320E+01    1.723E+02
    70     2.800E+04    4.893E-02    1.035E-03    1.314E+02    2.523E+02
    71     2.840E+04    9.713E-03    2.054E-04    8.935E+01    2.119E+02
    72     2.880E+04    4.415E-02    9.334E-04   -4.706E+01    7.726E+01
    73     2.920E+04    1.559E-02    3.297E-04   -1.160E+02    1.003E+01
    74     2.960E+04    2.694E-02    5.696E-04   -1.292E+01    1.148E+02
    75     3.000E+04    1.682E-02    3.556E-04   -3.208E+01    9.742E+01
    76     3.040E+04    1.963E-02    4.150E-04    1.615E+02    2.927E+02
    77     3.080E+04    2.580E-02    5.455E-04   -1.698E+02   -3.686E+01
    78     3.120E+04    5.177E-02    1.095E-03    1.544E+02    2.891E+02
    79     3.160E+04    1.105E-02    2.336E-04    6.443E+01    2.008E+02
    80     3.200E+04    3.856E-02    8.153E-04   -4.163E+01    9.650E+01
    81     3.240E+04    2.050E-02    4.335E-04    1.330E+02    2.729E+02
    82     3.280E+04    1.198E-02    2.534E-04   -1.195E+00    1.404E+02
    83     3.320E+04    3.147E-02    6.654E-04   -5.890E+00    1.374E+02
    84     3.360E+04    2.862E-02    6.050E-04    3.132E+01    1.764E+02
    85     3.400E+04    1.519E-03    3.212E-05   -4.677E+01    9.999E+01
    86     3.440E+04    1.878E-02    3.971E-04   -1.487E+02   -2.152E-01
    87     3.480E+04    3.157E-02    6.674E-04   -8.705E+01    6.316E+01
    88     3.520E+04    1.624E-02    3.433E-04    1.360E+02    2.879E+02
    89     3.560E+04    6.590E-03    1.393E-04    1.186E+02    2.723E+02
    90     3.600E+04    2.629E-02    5.559E-04   -9.430E+01    6.109E+01
    91     3.640E+04    3.081E-03    6.515E-05    1.184E+02    2.755E+02
    92     3.680E+04    1.916E-02    4.051E-04   -1.169E+02    4.192E+01
    93     3.720E+04    1.158E-02    2.448E-04   -4.949E+00    1.556E+02
    94     3.760E+04    2.236E-02    4.728E-04    1.186E+02    2.809E+02
    95     3.800E+04    8.700E-03    1.840E-04    1.475E+02    3.115E+02
    96     3.840E+04    8.935E-03    1.889E-04    4.247E+01    2.082E+02
    97     3.880E+04    5.886E-03    1.244E-04    1.791E+02    3.466E+02
    98     3.920E+04    9.490E-03    2.006E-04   -1.978E+01    1.494E+02
    99     3.960E+04    8.425E-03    1.781E-04    1.723E+02    3.433E+02


     TOTAL HARMONIC DISTORTION =   3.213829E+00 PERCENT

**** 04/21/19 19:01:47 ********* PSpice 9.2 (Mar 2000) ******** ID# 1 ********

 * D:\GIT\MAI\Invertor\Orcad\9_DC_sweep_18-36v_10ohm\test.sch


 ****     FOURIER ANALYSIS                 TEMPERATURE =   27.000 DEG C

 ****     CURRENT STEP                     PARAM EP =   24    


******************************************************************************



FOURIER COMPONENTS OF TRANSIENT RESPONSE V(V_sence)



 DC COMPONENT =  -2.729014E-01

 HARMONIC   FREQUENCY    FOURIER    NORMALIZED    PHASE        NORMALIZED
    NO         (HZ)     COMPONENT    COMPONENT    (DEG)       PHASE (DEG)

     1     4.000E+02    4.741E+01    1.000E+00   -1.716E+00    0.000E+00
     2     8.000E+02    6.391E-02    1.348E-03   -1.394E+02   -1.360E+02
     3     1.200E+03    2.325E-01    4.905E-03    1.037E+00    6.184E+00
     4     1.600E+03    4.789E-02    1.010E-03   -1.605E+02   -1.536E+02
     5     2.000E+03    2.367E-02    4.993E-04   -1.220E+02   -1.134E+02
     6     2.400E+03    6.555E-02    1.383E-03    4.548E+01    5.577E+01
     7     2.800E+03    4.605E-02    9.715E-04    1.586E+02    1.706E+02
     8     3.200E+03    2.693E-02    5.682E-04    5.281E+01    6.653E+01
     9     3.600E+03    4.411E-02    9.305E-04    9.302E+01    1.085E+02
    10     4.000E+03    2.273E-03    4.794E-05    1.197E+02    1.369E+02
    11     4.400E+03    3.075E-02    6.487E-04    1.002E+02    1.191E+02
    12     4.800E+03    3.220E-02    6.792E-04    1.557E+02    1.763E+02
    13     5.200E+03    3.015E-02    6.360E-04   -1.038E+02   -8.148E+01
    14     5.600E+03    1.665E-02    3.512E-04   -7.297E+00    1.672E+01
    15     6.000E+03    1.698E-02    3.581E-04    1.420E+02    1.677E+02
    16     6.400E+03    1.868E-02    3.941E-04   -4.314E+01   -1.569E+01
    17     6.800E+03    1.100E-02    2.320E-04    4.169E+01    7.085E+01
    18     7.200E+03    1.718E-02    3.625E-04    4.466E+01    7.554E+01
    19     7.600E+03    3.423E-03    7.221E-05    5.203E+01    8.462E+01
    20     8.000E+03    2.178E-02    4.594E-04   -1.184E+02   -8.409E+01
    21     8.400E+03    1.917E-02    4.044E-04    3.733E+01    7.336E+01
    22     8.800E+03    2.117E-02    4.467E-04    4.757E+01    8.532E+01
    23     9.200E+03    2.806E-02    5.919E-04   -1.249E+02   -8.540E+01
    24     9.600E+03    2.744E-02    5.788E-04    1.630E+02    2.042E+02
    25     1.000E+04    7.667E-02    1.617E-03    3.163E+01    7.451E+01
    26     1.040E+04    9.125E-02    1.925E-03   -5.788E+01   -1.328E+01
    27     1.080E+04    2.478E-01    5.226E-03   -1.388E+02   -9.251E+01
    28     1.120E+04    1.314E-01    2.771E-03    1.080E+02    1.560E+02
    29     1.160E+04    5.005E-01    1.056E-02    4.529E+01    9.504E+01
    30     1.200E+04    1.853E-01    3.908E-03   -8.964E+01   -3.818E+01
    31     1.240E+04    6.788E-01    1.432E-02   -1.228E+02   -6.963E+01
    32     1.280E+04    2.127E-01    4.487E-03    6.249E+01    1.174E+02
    33     1.320E+04    5.643E-01    1.190E-02    6.951E+01    1.261E+02
    34     1.360E+04    2.055E-01    4.335E-03   -1.713E+02   -1.129E+02
    35     1.400E+04    1.339E-01    2.824E-03   -1.047E+02   -4.469E+01
    36     1.440E+04    2.737E-01    5.772E-03   -4.400E+01    1.775E+01
    37     1.480E+04    4.001E-01    8.440E-03   -1.059E+02   -4.238E+01
    38     1.520E+04    1.169E-01    2.466E-03    6.806E+01    1.332E+02
    39     1.560E+04    1.684E-01    3.552E-03    9.177E+01    1.587E+02
    40     1.600E+04    3.183E-01    6.715E-03    1.544E+02    2.230E+02
    41     1.640E+04    2.988E-01    6.302E-03    9.332E+01    1.637E+02
    42     1.680E+04    4.445E-02    9.376E-04    1.649E+02    2.369E+02
    43     1.720E+04    9.253E-02    1.952E-03    1.578E+02    2.316E+02
    44     1.760E+04    3.231E-01    6.815E-03   -6.391E+00    6.909E+01
    45     1.800E+04    1.158E-01    2.444E-03   -1.184E+02   -4.120E+01
    46     1.840E+04    3.331E-01    7.026E-03    2.964E-01    7.921E+01
    47     1.880E+04    8.336E-02    1.758E-03   -7.804E+01    2.592E+00
    48     1.920E+04    1.199E-01    2.528E-03    2.643E+01    1.088E+02
    49     1.960E+04    1.122E-01    2.367E-03   -6.413E+01    1.993E+01
    50     2.000E+04    1.164E-01    2.455E-03    1.144E+02    2.002E+02
    51     2.040E+04    1.846E-01    3.894E-03   -9.366E+01   -6.174E+00
    52     2.080E+04    9.687E-02    2.043E-03    1.200E+02    2.092E+02
    53     2.120E+04    1.983E-01    4.183E-03   -1.141E+02   -2.319E+01
    54     2.160E+04    3.472E-02    7.324E-04   -1.518E+01    7.746E+01
    55     2.200E+04    2.069E-01    4.364E-03   -1.233E+02   -2.892E+01
    56     2.240E+04    8.357E-02    1.763E-03   -5.814E+01    3.792E+01
    57     2.280E+04    3.663E-02    7.726E-04   -1.379E+02   -4.015E+01
    58     2.320E+04    1.701E-01    3.588E-03   -5.658E+01    4.292E+01
    59     2.360E+04    1.091E-01    2.300E-03   -9.009E+01    1.113E+01
    60     2.400E+04    4.339E-02    9.152E-04   -5.859E+01    4.434E+01
    61     2.440E+04    9.651E-02    2.036E-03    6.855E+01    1.732E+02
    62     2.480E+04    9.995E-02    2.108E-03   -6.391E+01    4.245E+01
    63     2.520E+04    1.003E-01    2.116E-03   -4.172E+01    6.636E+01
    64     2.560E+04    5.271E-02    1.112E-03    3.755E+01    1.473E+02
    65     2.600E+04    3.913E-02    8.255E-04    1.127E+02    2.242E+02
    66     2.640E+04    4.697E-02    9.908E-04   -1.523E+02   -3.903E+01
    67     2.680E+04    4.967E-02    1.048E-03    5.004E+01    1.650E+02
    68     2.720E+04    3.296E-02    6.952E-04    1.320E+00    1.180E+02
    69     2.760E+04    3.690E-02    7.783E-04   -3.688E+01    8.149E+01
    70     2.800E+04    3.986E-02    8.409E-04    9.806E+01    2.181E+02
    71     2.840E+04    3.225E-02    6.802E-04   -1.642E+02   -4.236E+01
    72     2.880E+04    4.732E-02    9.981E-04   -1.470E+02   -2.350E+01
    73     2.920E+04    2.347E-02    4.950E-04    9.664E+01    2.219E+02
    74     2.960E+04    1.693E-02    3.570E-04    1.133E+00    1.281E+02
    75     3.000E+04    1.882E-02    3.971E-04    1.087E+01    1.395E+02
    76     3.040E+04    4.415E-02    9.312E-04    5.922E+01    1.896E+02
    77     3.080E+04    1.762E-02    3.716E-04   -9.798E+01    3.412E+01
    78     3.120E+04    2.448E-02    5.163E-04   -1.605E+02   -2.671E+01
    79     3.160E+04    1.752E-02    3.695E-04   -1.444E+02   -8.866E+00
    80     3.200E+04    4.330E-02    9.134E-04   -1.236E+02    1.369E+01
    81     3.240E+04    1.760E-02    3.713E-04    1.180E+02    2.570E+02
    82     3.280E+04    1.267E-02    2.672E-04    4.187E+01    1.825E+02
    83     3.320E+04    6.760E-03    1.426E-04    1.275E+02    2.698E+02
    84     3.360E+04    3.997E-02    8.431E-04    7.771E+01    2.218E+02
    85     3.400E+04    1.798E-02    3.793E-04    1.033E+02    2.491E+02
    86     3.440E+04    1.381E-02    2.913E-04    3.932E+01    1.869E+02
    87     3.480E+04    2.190E-02    4.620E-04   -4.719E+01    1.021E+02
    88     3.520E+04    2.623E-02    5.532E-04   -1.553E+02   -4.365E+00
    89     3.560E+04    1.590E-02    3.354E-04    5.365E+01    2.063E+02
    90     3.600E+04    2.352E-02    4.961E-04   -5.998E+01    9.441E+01
    91     3.640E+04    2.690E-02    5.673E-04   -4.412E+01    1.120E+02
    92     3.680E+04    6.800E-03    1.434E-04    1.362E+02    2.940E+02
    93     3.720E+04    2.588E-02    5.459E-04    1.670E+02    3.265E+02
    94     3.760E+04    1.832E-02    3.864E-04   -5.887E+01    1.024E+02
    95     3.800E+04    1.715E-02    3.617E-04    7.708E+01    2.401E+02
    96     3.840E+04    1.173E-02    2.475E-04    1.282E+02    2.929E+02
    97     3.880E+04    1.294E-02    2.729E-04   -1.237E+02    4.269E+01
    98     3.920E+04    1.980E-02    4.177E-04   -1.655E+02    2.665E+00
    99     3.960E+04    5.898E-03    1.244E-04   -1.268E+02    4.300E+01


     TOTAL HARMONIC DISTORTION =   3.220489E+00 PERCENT

**** 04/21/19 19:01:47 ********* PSpice 9.2 (Mar 2000) ******** ID# 1 ********

 * D:\GIT\MAI\Invertor\Orcad\9_DC_sweep_18-36v_10ohm\test.sch


 ****     FOURIER ANALYSIS                 TEMPERATURE =   27.000 DEG C

 ****     CURRENT STEP                     PARAM EP =   26    


******************************************************************************



FOURIER COMPONENTS OF TRANSIENT RESPONSE V(V_sence)



 DC COMPONENT =  -2.807007E-01

 HARMONIC   FREQUENCY    FOURIER    NORMALIZED    PHASE        NORMALIZED
    NO         (HZ)     COMPONENT    COMPONENT    (DEG)       PHASE (DEG)

     1     4.000E+02    4.748E+01    1.000E+00   -1.707E+00    0.000E+00
     2     8.000E+02    6.008E-02    1.265E-03   -1.343E+02   -1.308E+02
     3     1.200E+03    2.045E-01    4.306E-03   -4.175E+00    9.451E-01
     4     1.600E+03    3.350E-02    7.055E-04   -1.733E+02   -1.665E+02
     5     2.000E+03    1.912E-02    4.028E-04   -1.404E+02   -1.318E+02
     6     2.400E+03    7.961E-02    1.677E-03    4.804E+01    5.828E+01
     7     2.800E+03    4.079E-02    8.590E-04    1.432E+02    1.551E+02
     8     3.200E+03    3.346E-02    7.048E-04    3.162E+01    4.527E+01
     9     3.600E+03    5.478E-02    1.154E-03    1.064E+02    1.218E+02
    10     4.000E+03    2.588E-02    5.450E-04   -1.479E+02   -1.309E+02
    11     4.400E+03    1.854E-03    3.905E-05    1.115E+01    2.992E+01
    12     4.800E+03    1.573E-02    3.313E-04    1.036E+02    1.241E+02
    13     5.200E+03    1.518E-02    3.196E-04   -1.449E+02   -1.227E+02
    14     5.600E+03    3.455E-02    7.277E-04   -2.821E+01   -4.316E+00
    15     6.000E+03    8.999E-03    1.895E-04    2.256E+01    4.816E+01
    16     6.400E+03    1.468E-02    3.091E-04    2.989E+01    5.720E+01
    17     6.800E+03    2.512E-02    5.289E-04    7.646E+01    1.055E+02
    18     7.200E+03    1.310E-02    2.759E-04   -1.444E+02   -1.137E+02
    19     7.600E+03    1.210E-02    2.549E-04   -2.292E+01    9.511E+00
    20     8.000E+03    3.057E-02    6.438E-04   -3.357E+01    5.648E-01
    21     8.400E+03    1.575E-02    3.317E-04    1.083E+02    1.442E+02
    22     8.800E+03    8.146E-03    1.716E-04    5.726E+01    9.481E+01
    23     9.200E+03    2.409E-02    5.074E-04   -1.020E+02   -6.272E+01
    24     9.600E+03    8.575E-03    1.806E-04   -2.490E+01    1.606E+01
    25     1.000E+04    3.015E-02    6.350E-04    1.463E+02    1.890E+02
    26     1.040E+04    2.546E-02    5.362E-04    3.023E+01    7.461E+01
    27     1.080E+04    7.878E-02    1.659E-03   -4.233E+01    3.751E+00
    28     1.120E+04    1.107E-01    2.331E-03   -1.179E+02   -7.009E+01
    29     1.160E+04    1.751E-01    3.687E-03    1.164E+02    1.659E+02
    30     1.200E+04    2.006E-01    4.224E-03    7.342E+01    1.246E+02
    31     1.240E+04    3.625E-01    7.635E-03   -6.899E+01   -1.608E+01
    32     1.280E+04    2.768E-01    5.829E-03   -9.300E+01   -3.838E+01
    33     1.320E+04    6.105E-01    1.286E-02    1.177E+02    1.740E+02
    34     1.360E+04    2.635E-01    5.550E-03    1.121E+02    1.701E+02
    35     1.400E+04    6.576E-01    1.385E-02   -6.059E+01   -8.467E-01
    36     1.440E+04    2.453E-01    5.166E-03   -3.165E+01    2.979E+01
    37     1.480E+04    2.587E-01    5.448E-03    9.151E+01    1.547E+02
    38     1.520E+04    2.291E-01    4.824E-03   -1.548E+02   -8.998E+01
    39     1.560E+04    4.242E-01    8.933E-03    1.457E+02    2.123E+02
    40     1.600E+04    2.041E-01    4.299E-03    1.146E+02    1.829E+02
    41     1.640E+04    2.133E-01    4.493E-03   -6.987E+01    1.055E-01
    42     1.680E+04    2.362E-01    4.973E-03    3.854E+01    1.102E+02
    43     1.720E+04    3.465E-01    7.297E-03   -4.809E+00    6.858E+01
    44     1.760E+04    1.366E-01    2.876E-03   -5.491E+01    2.019E+01
    45     1.800E+04    2.784E-01    5.862E-03    4.036E+01    1.172E+02
    46     1.840E+04    2.558E-01    5.388E-03   -1.120E+02   -3.353E+01
    47     1.880E+04    8.986E-02    1.893E-03    8.889E+01    1.691E+02
    48     1.920E+04    2.033E-01    4.281E-03   -1.117E+02   -2.976E+01
    49     1.960E+04    1.515E-01    3.190E-03   -1.610E+02   -7.740E+01
    50     2.000E+04    1.654E-01    3.483E-03   -6.335E+01    2.199E+01
    51     2.040E+04    1.659E-01    3.495E-03   -1.777E+02   -9.065E+01
    52     2.080E+04    1.952E-01    4.111E-03   -4.652E+01    4.224E+01
    53     2.120E+04    1.406E-01    2.962E-03    1.283E+02    2.188E+02
    54     2.160E+04    1.160E-01    2.444E-03   -6.306E+01    2.911E+01
    55     2.200E+04    1.641E-01    3.457E-03    8.606E+01    1.799E+02
    56     2.240E+04    4.685E-02    9.866E-04   -1.751E+02   -7.947E+01
    57     2.280E+04    1.177E-01    2.478E-03    8.384E+01    1.811E+02
    58     2.320E+04    1.425E-01    3.002E-03    1.541E+02    2.531E+02
    59     2.360E+04    8.457E-02    1.781E-03    1.029E+02    2.036E+02
    60     2.400E+04    1.053E-01    2.219E-03    1.441E+02    2.465E+02
    61     2.440E+04    7.687E-02    1.619E-03   -1.741E+02   -7.002E+01
    62     2.480E+04    1.445E-01    3.043E-03    1.666E+02    2.724E+02
    63     2.520E+04    5.516E-02    1.162E-03    1.444E+02    2.519E+02
    64     2.560E+04    2.424E-02    5.104E-04    8.056E+01    1.898E+02
    65     2.600E+04    1.095E-01    2.306E-03   -1.484E+02   -3.748E+01
    66     2.640E+04    1.196E-01    2.518E-03   -1.618E+02   -4.914E+01
    67     2.680E+04    2.291E-02    4.824E-04    4.241E+01    1.568E+02
    68     2.720E+04    5.293E-02    1.115E-03    6.818E+01    1.842E+02
    69     2.760E+04    7.865E-02    1.656E-03   -1.679E+02   -5.008E+01
    70     2.800E+04    5.365E-02    1.130E-03   -9.987E+01    1.961E+01
    71     2.840E+04    2.913E-02    6.136E-04   -5.904E+01    6.215E+01
    72     2.880E+04    5.090E-02    1.072E-03    1.656E+02    2.885E+02
    73     2.920E+04    5.022E-02    1.058E-03    1.104E+02    2.350E+02
    74     2.960E+04    2.988E-02    6.292E-04    8.193E+01    2.082E+02
    75     3.000E+04    4.462E-02    9.396E-04   -1.605E+02   -3.253E+01
    76     3.040E+04    2.944E-02    6.201E-04   -6.567E+01    6.405E+01
    77     3.080E+04    3.725E-02    7.844E-04   -5.671E+01    7.471E+01
    78     3.120E+04    3.384E-02    7.126E-04   -1.700E+02   -3.687E+01
    79     3.160E+04    2.677E-02    5.638E-04    1.090E+02    2.438E+02
    80     3.200E+04    3.369E-02    7.095E-04    1.488E+02    2.854E+02
    81     3.240E+04    4.863E-02    1.024E-03    1.549E+02    2.932E+02
    82     3.280E+04    1.335E-02    2.812E-04    2.612E+01    1.661E+02
    83     3.320E+04    1.111E-02    2.340E-04   -1.162E+02    2.545E+01
    84     3.360E+04    9.736E-03    2.050E-04   -1.806E+01    1.253E+02
    85     3.400E+04    3.370E-02    7.097E-04   -2.609E+01    1.190E+02
    86     3.440E+04    1.064E-02    2.242E-04   -1.606E+02   -1.385E+01
    87     3.480E+04    2.528E-03    5.324E-05   -5.356E+01    9.493E+01
    88     3.520E+04    1.767E-02    3.721E-04   -1.631E+02   -1.287E+01
    89     3.560E+04    2.672E-02    5.628E-04    1.643E+02    3.162E+02
    90     3.600E+04    2.332E-02    4.911E-04   -1.102E+02    4.343E+01
    91     3.640E+04    2.954E-02    6.221E-04    1.709E+02    3.262E+02
    92     3.680E+04    1.508E-02    3.176E-04    1.643E+02    3.213E+02
    93     3.720E+04    2.221E-04    4.678E-06   -8.892E+01    6.981E+01
    94     3.760E+04    2.548E-03    5.366E-05    3.781E+00    1.642E+02
    95     3.800E+04    1.536E-02    3.234E-04   -1.509E+02    1.125E+01
    96     3.840E+04    2.999E-02    6.316E-04    9.964E+01    2.635E+02
    97     3.880E+04    9.024E-03    1.900E-04    1.078E+02    2.734E+02
    98     3.920E+04    1.633E-02    3.440E-04   -4.996E+01    1.173E+02
    99     3.960E+04    1.493E-02    3.144E-04    1.082E+02    2.772E+02


     TOTAL HARMONIC DISTORTION =   3.258364E+00 PERCENT

**** 04/21/19 19:01:47 ********* PSpice 9.2 (Mar 2000) ******** ID# 1 ********

 * D:\GIT\MAI\Invertor\Orcad\9_DC_sweep_18-36v_10ohm\test.sch


 ****     FOURIER ANALYSIS                 TEMPERATURE =   27.000 DEG C

 ****     CURRENT STEP                     PARAM EP =   27    


******************************************************************************



FOURIER COMPONENTS OF TRANSIENT RESPONSE V(V_sence)



 DC COMPONENT =  -2.798258E-01

 HARMONIC   FREQUENCY    FOURIER    NORMALIZED    PHASE        NORMALIZED
    NO         (HZ)     COMPONENT    COMPONENT    (DEG)       PHASE (DEG)

     1     4.000E+02    4.750E+01    1.000E+00   -1.701E+00    0.000E+00
     2     8.000E+02    6.228E-02    1.311E-03   -1.263E+02   -1.229E+02
     3     1.200E+03    1.966E-01    4.139E-03    7.662E-01    5.869E+00
     4     1.600E+03    3.904E-02    8.219E-04    1.589E+02    1.658E+02
     5     2.000E+03    1.681E-02    3.540E-04   -1.330E+02   -1.245E+02
     6     2.400E+03    8.898E-02    1.873E-03    4.443E+01    5.464E+01
     7     2.800E+03    5.026E-02    1.058E-03    1.232E+02    1.351E+02
     8     3.200E+03    1.178E-02    2.479E-04    5.529E+01    6.890E+01
     9     3.600E+03    4.768E-02    1.004E-03    1.077E+02    1.230E+02
    10     4.000E+03    1.135E-02    2.389E-04    1.292E+02    1.462E+02
    11     4.400E+03    1.017E-02    2.141E-04    1.065E+02    1.252E+02
    12     4.800E+03    1.972E-02    4.153E-04    1.368E+02    1.572E+02
    13     5.200E+03    1.838E-02    3.869E-04   -1.432E+02   -1.211E+02
    14     5.600E+03    3.351E-02    7.055E-04   -3.156E+01   -7.747E+00
    15     6.000E+03    1.820E-02    3.832E-04    7.666E+01    1.022E+02
    16     6.400E+03    9.696E-03    2.041E-04    6.505E+00    3.372E+01
    17     6.800E+03    1.526E-02    3.214E-04    7.499E+01    1.039E+02
    18     7.200E+03    1.086E-02    2.287E-04    1.714E+02    2.021E+02
    19     7.600E+03    6.404E-03    1.348E-04    1.819E+01    5.051E+01
    20     8.000E+03    1.818E-02    3.829E-04    4.609E+00    3.863E+01
    21     8.400E+03    2.853E-02    6.006E-04    1.260E+02    1.617E+02
    22     8.800E+03    5.126E-03    1.079E-04    7.193E+01    1.094E+02
    23     9.200E+03    2.057E-02    4.330E-04   -9.899E+01   -5.987E+01
    24     9.600E+03    9.247E-03    1.947E-04   -7.649E+01   -3.566E+01
    25     1.000E+04    3.778E-02    7.953E-04    1.054E+02    1.479E+02
    26     1.040E+04    2.289E-02    4.819E-04    2.081E+01    6.504E+01
    27     1.080E+04    3.196E-02    6.730E-04   -9.441E+01   -4.848E+01
    28     1.120E+04    3.687E-02    7.763E-04   -1.463E+02   -9.870E+01
    29     1.160E+04    1.247E-01    2.624E-03    9.957E+01    1.489E+02
    30     1.200E+04    5.190E-02    1.093E-03   -9.524E+00    4.151E+01
    31     1.240E+04    3.067E-01    6.457E-03   -7.505E+01   -2.232E+01
    32     1.280E+04    1.470E-01    3.096E-03    1.477E+02    2.022E+02
    33     1.320E+04    5.698E-01    1.200E-02    1.169E+02    1.731E+02
    34     1.360E+04    2.899E-01    6.104E-03   -3.778E+01    2.006E+01
    35     1.400E+04    6.803E-01    1.432E-02   -5.420E+01    5.338E+00
    36     1.440E+04    3.385E-01    7.126E-03    1.260E+02    1.873E+02
    37     1.480E+04    4.930E-01    1.038E-02    1.317E+02    1.947E+02
    38     1.520E+04    2.266E-01    4.772E-03   -1.366E+02   -7.191E+01
    39     1.560E+04    1.234E-01    2.598E-03    1.042E+02    1.706E+02
    40     1.600E+04    2.902E-01    6.110E-03   -2.348E+00    6.569E+01
    41     1.640E+04    4.352E-01    9.163E-03   -4.021E+01    2.954E+01
    42     1.680E+04    1.830E-01    3.852E-03    6.526E+01    1.367E+02
    43     1.720E+04    1.276E-01    2.686E-03   -5.107E+01    2.208E+01
    44     1.760E+04    3.017E-01    6.351E-03   -1.540E+02   -7.913E+01
    45     1.800E+04    1.604E-01    3.376E-03    1.242E+02    2.007E+02
    46     1.840E+04    4.203E-01    8.848E-03   -1.368E+02   -5.856E+01
    47     1.880E+04    1.515E-01    3.191E-03    1.089E+02    1.889E+02
    48     1.920E+04    1.569E-01    3.304E-03   -1.269E+02   -4.527E+01
    49     1.960E+04    1.104E-01    2.325E-03    1.156E+02    1.990E+02
    50     2.000E+04    1.198E-01    2.522E-03    2.649E+01    1.115E+02
    51     2.040E+04    1.927E-01    4.058E-03    1.298E+02    2.165E+02
    52     2.080E+04    1.363E-01    2.871E-03    2.037E+01    1.088E+02
    53     2.120E+04    2.502E-01    5.268E-03    1.222E+02    2.124E+02
    54     2.160E+04    3.564E-02    7.505E-04   -6.708E+01    2.478E+01
    55     2.200E+04    1.954E-01    4.114E-03    1.078E+02    2.013E+02
    56     2.240E+04    1.164E-01    2.451E-03   -1.426E+02   -4.737E+01
    57     2.280E+04    6.496E-02    1.368E-03    9.156E+01    1.885E+02
    58     2.320E+04    1.152E-01    2.426E-03   -1.474E+02   -4.874E+01
    59     2.360E+04    6.239E-02    1.314E-03   -2.419E+01    7.618E+01
    60     2.400E+04    7.150E-02    1.505E-03   -1.237E+02   -2.160E+01
    61     2.440E+04    7.699E-02    1.621E-03   -5.937E+01    4.439E+01
    62     2.480E+04    3.008E-02    6.333E-04   -4.023E+01    6.524E+01
    63     2.520E+04    1.102E-01    2.320E-03   -2.163E+01    8.554E+01
    64     2.560E+04    5.544E-02    1.167E-03   -4.998E+01    5.888E+01
    65     2.600E+04    5.686E-02    1.197E-03   -8.255E+01    2.802E+01
    66     2.640E+04    9.229E-02    1.943E-03    3.241E+01    1.447E+02
    67     2.680E+04    1.138E-01    2.395E-03    1.977E+01    1.337E+02
    68     2.720E+04    5.524E-02    1.163E-03   -8.426E+01    3.141E+01
    69     2.760E+04    6.631E-02    1.396E-03   -9.916E+01    1.822E+01
    70     2.800E+04    9.341E-02    1.967E-03    3.563E+01    1.547E+02
    71     2.840E+04    5.851E-02    1.232E-03    6.453E+01    1.853E+02
    72     2.880E+04    1.291E-02    2.717E-04   -1.564E+02   -3.389E+01
    73     2.920E+04    5.777E-02    1.216E-03   -1.817E+01    1.060E+02
    74     2.960E+04    5.881E-02    1.238E-03   -4.488E+01    8.100E+01
    75     3.000E+04    2.524E-02    5.314E-04   -9.738E+01    3.020E+01
    76     3.040E+04    5.383E-02    1.133E-03    5.454E+01    1.838E+02
    77     3.080E+04    2.307E-02    4.857E-04    1.007E+02    2.317E+02
    78     3.120E+04    1.157E-02    2.437E-04    1.772E+02    3.099E+02
    79     3.160E+04    4.983E-02    1.049E-03   -1.213E+00    1.332E+02
    80     3.200E+04    4.671E-02    9.835E-04   -4.143E+01    9.465E+01
    81     3.240E+04    3.097E-02    6.521E-04   -3.123E+01    1.066E+02
    82     3.280E+04    4.048E-02    8.523E-04   -1.929E+00    1.376E+02
    83     3.320E+04    1.596E-02    3.359E-04   -1.717E+02   -3.054E+01
    84     3.360E+04    1.476E-02    3.108E-04    1.253E+02    2.682E+02
    85     3.400E+04    4.028E-03    8.480E-05    8.752E+01    2.321E+02
    86     3.440E+04    1.991E-02    4.192E-04    1.676E+02    3.139E+02
    87     3.480E+04    2.916E-02    6.139E-04    6.061E+00    1.541E+02
    88     3.520E+04    2.208E-02    4.649E-04   -3.482E+00    1.462E+02
    89     3.560E+04    2.685E-02    5.652E-04    2.047E+01    1.719E+02
    90     3.600E+04    3.899E-02    8.210E-04   -8.547E+00    1.445E+02
    91     3.640E+04    1.727E-02    3.636E-04    6.558E+01    2.204E+02
    92     3.680E+04    2.507E-02    5.278E-04   -2.396E+01    1.325E+02
    93     3.720E+04    1.330E-02    2.800E-04   -4.113E+01    1.171E+02
    94     3.760E+04    3.328E-03    7.006E-05    1.769E+02    3.368E+02
    95     3.800E+04    1.379E-02    2.904E-04   -7.002E+01    9.158E+01
    96     3.840E+04    1.404E-02    2.956E-04   -3.960E+00    1.593E+02
    97     3.880E+04    2.359E-02    4.966E-04   -7.132E+01    9.368E+01
    98     3.920E+04    1.668E-03    3.512E-05   -3.085E+01    1.359E+02
    99     3.960E+04    1.404E-02    2.956E-04    9.066E+01    2.591E+02


     TOTAL HARMONIC DISTORTION =   3.312784E+00 PERCENT

**** 04/21/19 19:01:47 ********* PSpice 9.2 (Mar 2000) ******** ID# 1 ********

 * D:\GIT\MAI\Invertor\Orcad\9_DC_sweep_18-36v_10ohm\test.sch


 ****     FOURIER ANALYSIS                 TEMPERATURE =   27.000 DEG C

 ****     CURRENT STEP                     PARAM EP =   28    


******************************************************************************



FOURIER COMPONENTS OF TRANSIENT RESPONSE V(V_sence)



 DC COMPONENT =  -2.779720E-01

 HARMONIC   FREQUENCY    FOURIER    NORMALIZED    PHASE        NORMALIZED
    NO         (HZ)     COMPONENT    COMPONENT    (DEG)       PHASE (DEG)

     1     4.000E+02    4.753E+01    1.000E+00   -1.698E+00    0.000E+00
     2     8.000E+02    5.459E-02    1.149E-03   -1.230E+02   -1.196E+02
     3     1.200E+03    1.860E-01    3.913E-03   -5.112E-02    5.042E+00
     4     1.600E+03    3.538E-02    7.443E-04    1.708E+02    1.776E+02
     5     2.000E+03    1.113E-02    2.342E-04   -9.127E+01   -8.278E+01
     6     2.400E+03    1.044E-01    2.196E-03    4.786E+01    5.805E+01
     7     2.800E+03    7.494E-02    1.577E-03    1.227E+02    1.346E+02
     8     3.200E+03    1.212E-02    2.550E-04    3.661E+01    5.019E+01
     9     3.600E+03    3.936E-02    8.281E-04    8.699E+01    1.023E+02
    10     4.000E+03    1.605E-02    3.376E-04    1.544E+02    1.714E+02
    11     4.400E+03    1.316E-02    2.769E-04   -1.654E+02   -1.467E+02
    12     4.800E+03    5.483E-03    1.154E-04   -1.982E+01    5.489E-01
    13     5.200E+03    1.137E-02    2.393E-04   -5.519E+01   -3.312E+01
    14     5.600E+03    2.544E-02    5.352E-04   -2.111E+01    2.654E+00
    15     6.000E+03    1.106E-02    2.328E-04    6.572E+01    9.118E+01
    16     6.400E+03    1.445E-02    3.040E-04   -1.471E+01    1.246E+01
    17     6.800E+03    1.885E-02    3.967E-04    4.283E+01    7.169E+01
    18     7.200E+03    8.984E-03    1.890E-04    8.647E+01    1.170E+02
    19     7.600E+03    1.847E-02    3.886E-04   -8.970E+01   -5.744E+01
    20     8.000E+03    2.039E-02    4.291E-04   -8.658E+01   -5.263E+01
    21     8.400E+03    8.375E-03    1.762E-04   -1.548E+02   -1.192E+02
    22     8.800E+03    4.644E-03    9.772E-05    1.731E+02    2.105E+02
    23     9.200E+03    1.908E-02    4.014E-04    3.193E+01    7.098E+01
    24     9.600E+03    1.552E-02    3.266E-04   -4.518E+01   -4.432E+00
    25     1.000E+04    2.405E-02    5.060E-04    9.516E+01    1.376E+02
    26     1.040E+04    9.532E-03    2.006E-04    1.609E+02    2.050E+02
    27     1.080E+04    3.613E-02    7.602E-04   -9.838E+01   -5.254E+01
    28     1.120E+04    8.128E-03    1.710E-04   -6.683E+01   -1.929E+01
    29     1.160E+04    8.364E-02    1.760E-03    1.064E+02    1.556E+02
    30     1.200E+04    1.070E-01    2.252E-03   -3.862E+01    1.231E+01
    31     1.240E+04    1.614E-01    3.395E-03   -5.538E+01   -2.752E+00
    32     1.280E+04    2.712E-01    5.706E-03    1.528E+02    2.071E+02
    33     1.320E+04    2.131E-01    4.484E-03    1.171E+02    1.731E+02
    34     1.360E+04    5.677E-01    1.195E-02   -1.749E+01    4.024E+01
    35     1.400E+04    1.366E-01    2.874E-03   -5.736E+01    2.063E+00
    36     1.440E+04    7.636E-01    1.607E-02    1.682E+02    2.293E+02
    37     1.480E+04    9.450E-02    1.988E-03   -1.675E+02   -1.047E+02
    38     1.520E+04    5.609E-01    1.180E-02   -2.109E+01    4.343E+01
    39     1.560E+04    2.663E-01    5.603E-03    4.843E+01    1.146E+02
    40     1.600E+04    2.318E-01    4.877E-03    1.322E+01    8.113E+01
    41     1.640E+04    1.976E-01    4.157E-03   -9.575E+01   -2.614E+01
    42     1.680E+04    4.342E-01    9.136E-03    1.788E+02    2.501E+02
    43     1.720E+04    2.037E-01    4.286E-03   -1.143E+02   -4.126E+01
    44     1.760E+04    2.525E-01    5.313E-03   -1.455E+02   -7.076E+01
    45     1.800E+04    2.415E-01    5.081E-03    1.001E+02    1.765E+02
    46     1.840E+04    1.843E-01    3.878E-03   -5.548E+01    2.262E+01
    47     1.880E+04    3.694E-01    7.773E-03    8.458E+01    1.644E+02
    48     1.920E+04    1.330E-01    2.798E-03    3.114E+00    8.461E+01
    49     1.960E+04    1.559E-01    3.279E-03    9.222E+01    1.754E+02
    50     2.000E+04    1.716E-01    3.610E-03    3.728E+01    1.222E+02
    51     2.040E+04    1.149E-01    2.417E-03   -1.608E+02   -7.417E+01
    52     2.080E+04    1.963E-01    4.130E-03    4.570E+00    9.285E+01
    53     2.120E+04    1.394E-01    2.933E-03   -1.547E+02   -6.473E+01
    54     2.160E+04    2.462E-01    5.181E-03   -3.138E+01    6.030E+01
    55     2.200E+04    1.547E-02    3.256E-04    1.507E+02    2.441E+02
    56     2.240E+04    2.283E-01    4.804E-03   -4.581E+01    4.926E+01
    57     2.280E+04    1.107E-01    2.330E-03    2.057E+01    1.173E+02
    58     2.320E+04    1.293E-01    2.720E-03   -4.188E+01    5.659E+01
    59     2.360E+04    1.458E-01    3.067E-03    2.171E+01    1.219E+02
    60     2.400E+04    4.361E-02    9.176E-04   -9.519E+00    9.234E+01
    61     2.440E+04    1.010E-01    2.126E-03    2.898E+01    1.325E+02
    62     2.480E+04    5.553E-02    1.168E-03    7.543E+01    1.807E+02
    63     2.520E+04    5.399E-02    1.136E-03    3.608E+01    1.430E+02
    64     2.560E+04    2.529E-02    5.322E-04    1.706E+02    2.792E+02
    65     2.600E+04    3.777E-02    7.948E-04    1.160E+02    2.263E+02
    66     2.640E+04    7.054E-02    1.484E-03    1.079E+02    2.199E+02
    67     2.680E+04    4.662E-02    9.809E-04   -6.294E+01    5.080E+01
    68     2.720E+04    5.317E-02    1.119E-03   -1.052E+02    1.029E+01
    69     2.760E+04    8.674E-02    1.825E-03    1.425E+02    2.596E+02
    70     2.800E+04    5.572E-02    1.172E-03    1.321E+02    2.510E+02
    71     2.840E+04    9.011E-02    1.896E-03   -5.690E+01    6.364E+01
    72     2.880E+04    2.556E-02    5.379E-04   -2.878E+01    9.346E+01
    73     2.920E+04    6.115E-02    1.287E-03    1.404E+02    2.643E+02
    74     2.960E+04    6.229E-02    1.311E-03   -1.482E+02   -2.260E+01
    75     3.000E+04    3.119E-02    6.564E-04   -1.363E+02   -8.965E+00
    76     3.040E+04    3.672E-02    7.726E-04    5.014E+01    1.792E+02
    77     3.080E+04    4.524E-02    9.519E-04   -1.780E+01    1.129E+02
    78     3.120E+04    7.411E-03    1.559E-04    1.188E+02    2.512E+02
    79     3.160E+04    3.767E-02    7.926E-04    1.622E+02    2.963E+02
    80     3.200E+04    5.667E-02    1.192E-03   -1.279E+02    7.945E+00
    81     3.240E+04    3.608E-02    7.593E-04   -1.707E+02   -3.319E+01
    82     3.280E+04    1.526E-02    3.211E-04    9.967E+01    2.389E+02
    83     3.320E+04    1.469E-02    3.090E-04   -4.105E+01    9.987E+01
    84     3.360E+04    3.660E-02    7.701E-04    6.346E+01    2.061E+02
    85     3.400E+04    1.676E-02    3.528E-04    2.693E+01    1.712E+02
    86     3.440E+04    1.996E-02    4.200E-04   -1.132E+02    3.282E+01
    87     3.480E+04    6.269E-03    1.319E-04    1.403E+02    2.880E+02
    88     3.520E+04    3.758E-02    7.907E-04   -1.193E+02    3.010E+01
    89     3.560E+04    2.412E-02    5.075E-04   -1.421E+02    9.043E+00
    90     3.600E+04    6.731E-03    1.416E-04   -1.280E+02    2.484E+01
    91     3.640E+04    2.764E-02    5.817E-04   -1.526E+02    1.870E+00
    92     3.680E+04    1.328E-02    2.794E-04    6.223E+01    2.184E+02
    93     3.720E+04    1.604E-02    3.375E-04    1.581E+02    3.160E+02
    94     3.760E+04    1.394E-02    2.933E-04    1.393E+02    2.989E+02
    95     3.800E+04    1.311E-02    2.758E-04    6.466E+01    2.259E+02
    96     3.840E+04    1.659E-02    3.490E-04    1.545E+02    3.175E+02
    97     3.880E+04    8.516E-03    1.792E-04   -1.041E+02    6.057E+01
    98     3.920E+04    1.113E-02    2.342E-04    1.378E+02    3.042E+02
    99     3.960E+04    1.874E-03    3.942E-05    8.243E+01    2.505E+02


     TOTAL HARMONIC DISTORTION =   3.353213E+00 PERCENT

**** 04/21/19 19:01:47 ********* PSpice 9.2 (Mar 2000) ******** ID# 1 ********

 * D:\GIT\MAI\Invertor\Orcad\9_DC_sweep_18-36v_10ohm\test.sch


 ****     FOURIER ANALYSIS                 TEMPERATURE =   27.000 DEG C

 ****     CURRENT STEP                     PARAM EP =   30    


******************************************************************************



FOURIER COMPONENTS OF TRANSIENT RESPONSE V(V_sence)



 DC COMPONENT =  -2.905893E-01

 HARMONIC   FREQUENCY    FOURIER    NORMALIZED    PHASE        NORMALIZED
    NO         (HZ)     COMPONENT    COMPONENT    (DEG)       PHASE (DEG)

     1     4.000E+02    4.756E+01    1.000E+00   -1.681E+00    0.000E+00
     2     8.000E+02    7.733E-02    1.626E-03   -1.309E+02   -1.275E+02
     3     1.200E+03    1.839E-01    3.868E-03   -6.052E+00   -1.008E+00
     4     1.600E+03    3.317E-02    6.975E-04    1.328E+02    1.395E+02
     5     2.000E+03    3.064E-02    6.443E-04   -1.606E+02   -1.521E+02
     6     2.400E+03    9.489E-02    1.995E-03    4.431E+01    5.440E+01
     7     2.800E+03    5.642E-02    1.186E-03    1.306E+02    1.423E+02
     8     3.200E+03    1.358E-02    2.856E-04    6.572E+01    7.918E+01
     9     3.600E+03    4.767E-02    1.002E-03    1.142E+02    1.293E+02
    10     4.000E+03    2.754E-02    5.791E-04   -1.655E+02   -1.487E+02
    11     4.400E+03    1.811E-02    3.808E-04   -5.910E+01   -4.061E+01
    12     4.800E+03    2.908E-02    6.115E-04    4.480E+01    6.497E+01
    13     5.200E+03    2.443E-02    5.138E-04    1.728E+02    1.947E+02
    14     5.600E+03    2.743E-02    5.768E-04   -5.930E+01   -3.576E+01
    15     6.000E+03    1.542E-02    3.243E-04   -9.788E+00    1.543E+01
    16     6.400E+03    1.224E-02    2.574E-04    9.840E+01    1.253E+02
    17     6.800E+03    1.336E-02    2.810E-04    5.431E+01    8.289E+01
    18     7.200E+03    1.279E-02    2.690E-04   -5.033E+01   -2.006E+01
    19     7.600E+03    1.632E-02    3.431E-04   -1.648E+02   -1.328E+02
    20     8.000E+03    1.399E-02    2.941E-04   -5.999E+01   -2.636E+01
    21     8.400E+03    6.692E-03    1.407E-04    9.974E+01    1.351E+02
    22     8.800E+03    1.341E-02    2.820E-04   -1.126E+02   -7.559E+01
    23     9.200E+03    2.121E-02    4.461E-04   -1.189E+02   -8.022E+01
    24     9.600E+03    2.750E-02    5.782E-04   -4.110E+01   -7.429E-01
    25     1.000E+04    1.333E-02    2.802E-04    8.840E+01    1.304E+02
    26     1.040E+04    3.940E-02    8.285E-04   -1.673E+02   -1.236E+02
    27     1.080E+04    1.586E-02    3.334E-04   -8.479E+01   -3.939E+01
    28     1.120E+04    7.207E-03    1.515E-04    1.373E+02    1.843E+02
    29     1.160E+04    9.768E-03    2.054E-04   -1.703E+01    3.173E+01
    30     1.200E+04    3.922E-02    8.247E-04   -1.409E+02   -9.041E+01
    31     1.240E+04    9.525E-02    2.003E-03    1.375E+02    1.897E+02
    32     1.280E+04    7.914E-02    1.664E-03   -2.229E+01    3.151E+01
    33     1.320E+04    1.710E-01    3.595E-03   -3.934E+01    1.615E+01
    34     1.360E+04    2.707E-01    5.691E-03    1.705E+02    2.277E+02
    35     1.400E+04    2.920E-01    6.140E-03    1.527E+02    2.116E+02
    36     1.440E+04    5.406E-01    1.137E-02   -6.591E+00    5.394E+01
    37     1.480E+04    3.887E-01    8.174E-03   -1.188E+01    5.034E+01
    38     1.520E+04    7.304E-01    1.536E-02    1.717E+02    2.356E+02
    39     1.560E+04    4.638E-01    9.753E-03    1.694E+02    2.350E+02
    40     1.600E+04    3.427E-01    7.205E-03   -2.273E+01    4.453E+01
    41     1.640E+04    1.657E-01    3.484E-03    4.131E+01    1.102E+02
    42     1.680E+04    3.613E-01    7.598E-03    2.689E+01    9.751E+01
    43     1.720E+04    3.949E-01    8.303E-03   -2.267E+01    4.963E+01
    44     1.760E+04    2.790E-01    5.867E-03    1.662E+02    2.401E+02
    45     1.800E+04    1.548E-01    3.256E-03   -8.272E+01   -7.060E+00
    46     1.840E+04    3.996E-01    8.403E-03   -1.329E+02   -5.558E+01
    47     1.880E+04    1.527E-01    3.210E-03    1.495E+02    2.285E+02
    48     1.920E+04    3.382E-01    7.111E-03   -1.072E+02   -2.651E+01
    49     1.960E+04    1.853E-01    3.897E-03    1.049E+02    1.873E+02
    50     2.000E+04    8.086E-02    1.700E-03   -1.137E+02   -2.959E+01
    51     2.040E+04    1.375E-01    2.892E-03    1.102E+02    1.959E+02
    52     2.080E+04    1.227E-01    2.579E-03    7.529E+01    1.627E+02
    53     2.120E+04    2.206E-01    4.638E-03    1.505E+02    2.396E+02
    54     2.160E+04    7.332E-02    1.542E-03    3.398E+01    1.248E+02
    55     2.200E+04    2.621E-01    5.512E-03    1.486E+02    2.411E+02
    56     2.240E+04    1.119E-01    2.353E-03   -8.401E+01    1.015E+01
    57     2.280E+04    1.433E-01    3.014E-03    1.282E+02    2.240E+02
    58     2.320E+04    1.681E-01    3.534E-03   -1.061E+02   -8.542E+00
    59     2.360E+04    6.257E-02    1.316E-03    2.882E+01    1.280E+02
    60     2.400E+04    1.089E-01    2.291E-03   -1.022E+02   -1.345E+00
    61     2.440E+04    1.142E-01    2.401E-03   -8.844E+00    9.372E+01
    62     2.480E+04    3.746E-02    7.878E-04   -5.916E+01    4.509E+01
    63     2.520E+04    1.175E-01    2.471E-03   -1.157E+01    9.436E+01
    64     2.560E+04    6.160E-02    1.295E-03    1.119E+01    1.188E+02
    65     2.600E+04    7.928E-02    1.667E-03   -1.854E+00    1.074E+02
    66     2.640E+04    6.044E-02    1.271E-03    4.389E+01    1.549E+02
    67     2.680E+04    6.864E-02    1.443E-03    1.667E+01    1.293E+02
    68     2.720E+04    5.689E-02    1.196E-03    5.563E+00    1.199E+02
    69     2.760E+04    2.836E-02    5.963E-04    1.560E+01    1.316E+02
    70     2.800E+04    7.077E-02    1.488E-03    9.666E+01    2.144E+02
    71     2.840E+04    5.713E-02    1.201E-03    8.129E+00    1.275E+02
    72     2.880E+04    9.754E-02    2.051E-03   -2.702E+01    9.404E+01
    73     2.920E+04    2.025E-02    4.259E-04    1.166E+02    2.393E+02
    74     2.960E+04    8.855E-02    1.862E-03    1.308E+02    2.553E+02
    75     3.000E+04    5.375E-02    1.130E-03   -2.412E+01    1.020E+02
    76     3.040E+04    9.846E-02    2.070E-03   -1.288E+01    1.149E+02
    77     3.080E+04    4.061E-02    8.540E-04    6.041E+01    1.899E+02
    78     3.120E+04    4.960E-03    1.043E-04    8.150E+01    2.127E+02
    79     3.160E+04    2.552E-02    5.366E-04   -1.322E+02    6.353E-01
    80     3.200E+04    3.709E-02    7.799E-04    1.297E+02    2.642E+02
    81     3.240E+04    3.995E-02    8.401E-04    3.150E+00    1.393E+02
    82     3.280E+04    6.069E-02    1.276E-03   -7.992E+00    1.299E+02
    83     3.320E+04    4.680E-02    9.842E-04    4.780E+01    1.874E+02
    84     3.360E+04    3.254E-02    6.842E-04   -1.462E+01    1.266E+02
    85     3.400E+04    1.985E-02    4.174E-04   -1.096E+02    3.335E+01
    86     3.440E+04    1.868E-02    3.928E-04    1.498E+02    2.944E+02
    87     3.480E+04    2.546E-02    5.353E-04   -8.806E+01    5.823E+01
    88     3.520E+04    9.254E-03    1.946E-04    1.231E+02    2.710E+02
    89     3.560E+04    2.799E-02    5.886E-04    5.269E+01    2.023E+02
    90     3.600E+04    1.572E-02    3.305E-04   -7.278E+00    1.441E+02
    91     3.640E+04    4.406E-02    9.266E-04    5.626E+01    2.093E+02
    92     3.680E+04    2.161E-02    4.544E-04    2.743E+01    1.821E+02
    93     3.720E+04    1.216E-02    2.558E-04    3.380E+01    1.902E+02
    94     3.760E+04    2.372E-02    4.988E-04    2.595E+01    1.840E+02
    95     3.800E+04    9.231E-03    1.941E-04   -9.245E+01    6.728E+01
    96     3.840E+04    2.299E-02    4.835E-04   -1.499E+01    1.464E+02
    97     3.880E+04    9.358E-03    1.968E-04   -7.253E+00    1.558E+02
    98     3.920E+04    1.237E-02    2.601E-04   -3.685E+01    1.279E+02
    99     3.960E+04    2.304E-02    4.844E-04   -9.032E+00    1.574E+02


     TOTAL HARMONIC DISTORTION =   3.439153E+00 PERCENT

**** 04/21/19 19:01:47 ********* PSpice 9.2 (Mar 2000) ******** ID# 1 ********

 * D:\GIT\MAI\Invertor\Orcad\9_DC_sweep_18-36v_10ohm\test.sch


 ****     FOURIER ANALYSIS                 TEMPERATURE =   27.000 DEG C

 ****     CURRENT STEP                     PARAM EP =   32    


******************************************************************************



FOURIER COMPONENTS OF TRANSIENT RESPONSE V(V_sence)



 DC COMPONENT =  -2.992602E-01

 HARMONIC   FREQUENCY    FOURIER    NORMALIZED    PHASE        NORMALIZED
    NO         (HZ)     COMPONENT    COMPONENT    (DEG)       PHASE (DEG)

     1     4.000E+02    4.759E+01    1.000E+00   -1.686E+00    0.000E+00
     2     8.000E+02    7.865E-02    1.653E-03   -1.323E+02   -1.289E+02
     3     1.200E+03    1.742E-01    3.660E-03   -1.120E+01   -6.142E+00
     4     1.600E+03    4.559E-02    9.578E-04    7.137E+01    7.812E+01
     5     2.000E+03    3.279E-02    6.889E-04    1.649E+02    1.733E+02
     6     2.400E+03    8.971E-02    1.885E-03    4.741E+01    5.753E+01
     7     2.800E+03    4.758E-02    9.998E-04    1.258E+02    1.376E+02
     8     3.200E+03    2.963E-02    6.226E-04   -3.075E+01   -1.726E+01
     9     3.600E+03    2.100E-02    4.412E-04    1.349E+02    1.501E+02
    10     4.000E+03    1.506E-02    3.163E-04   -4.804E+01   -3.119E+01
    11     4.400E+03    3.010E-02    6.324E-04   -5.967E+01   -4.113E+01
    12     4.800E+03    2.665E-02    5.599E-04   -2.543E+01   -5.205E+00
    13     5.200E+03    3.928E-03    8.253E-05   -1.028E+02   -8.086E+01
    14     5.600E+03    2.512E-02    5.278E-04   -5.938E+01   -3.578E+01
    15     6.000E+03    2.411E-02    5.065E-04   -5.676E+01   -3.147E+01
    16     6.400E+03    2.306E-02    4.845E-04   -6.831E+01   -4.134E+01
    17     6.800E+03    2.334E-03    4.904E-05   -8.150E+01   -5.284E+01
    18     7.200E+03    8.256E-03    1.735E-04   -9.463E+01   -6.429E+01
    19     7.600E+03    3.475E-02    7.301E-04   -8.379E+01   -5.176E+01
    20     8.000E+03    2.005E-02    4.212E-04   -8.896E+01   -5.525E+01
    21     8.400E+03    1.555E-02    3.267E-04    1.763E+02    2.117E+02
    22     8.800E+03    1.109E-02    2.330E-04   -8.229E+01   -4.521E+01
    23     9.200E+03    2.288E-02    4.808E-04   -9.696E+01   -5.819E+01
    24     9.600E+03    2.062E-02    4.333E-04   -5.190E+01   -1.144E+01
    25     1.000E+04    1.355E-02    2.847E-04    1.742E+02    2.164E+02
    26     1.040E+04    4.047E-03    8.503E-05   -5.116E+00    3.871E+01
    27     1.080E+04    4.336E-02    9.110E-04   -9.592E+01   -5.042E+01
    28     1.120E+04    2.461E-02    5.172E-04   -1.416E+02   -9.437E+01
    29     1.160E+04    3.422E-02    7.189E-04    1.213E+02    1.702E+02
    30     1.200E+04    4.672E-02    9.816E-04   -2.775E+01    2.281E+01
    31     1.240E+04    5.618E-02    1.180E-03   -1.086E+02   -5.632E+01
    32     1.280E+04    6.257E-02    1.315E-03   -1.641E+02   -1.101E+02
    33     1.320E+04    8.727E-02    1.834E-03    5.159E+01    1.072E+02
    34     1.360E+04    8.871E-02    1.864E-03    1.517E+01    7.248E+01
    35     1.400E+04    2.800E-01    5.884E-03   -1.040E+02   -4.500E+01
    36     1.440E+04    1.809E-01    3.801E-03   -1.415E+02   -8.085E+01
    37     1.480E+04    5.566E-01    1.170E-02    7.802E+01    1.404E+02
    38     1.520E+04    2.500E-01    5.253E-03    6.447E+01    1.285E+02
    39     1.560E+04    8.121E-01    1.706E-02   -1.027E+02   -3.698E+01
    40     1.600E+04    3.722E-01    7.820E-03   -1.051E+02   -3.766E+01
    41     1.640E+04    4.967E-01    1.044E-02    6.979E+01    1.389E+02
    42     1.680E+04    2.424E-01    5.093E-03    1.173E+02    1.880E+02
    43     1.720E+04    2.855E-01    5.999E-03    1.300E+02    2.024E+02
    44     1.760E+04    3.774E-01    7.931E-03    4.739E+01    1.216E+02
    45     1.800E+04    3.746E-01    7.872E-03   -9.505E+01   -1.920E+01
    46     1.840E+04    1.435E-01    3.015E-03   -3.531E+01    4.222E+01
    47     1.880E+04    4.219E-01    8.865E-03   -3.858E+01    4.064E+01
    48     1.920E+04    2.077E-01    4.365E-03   -1.477E+02   -6.677E+01
    49     1.960E+04    2.654E-01    5.576E-03   -1.965E+01    6.295E+01
    50     2.000E+04    2.325E-01    4.885E-03   -1.785E+02   -9.424E+01
    51     2.040E+04    5.717E-02    1.201E-03    1.572E+02    2.431E+02
    52     2.080E+04    1.841E-01    3.869E-03   -1.447E+02   -5.700E+01
    53     2.120E+04    1.645E-01    3.456E-03    1.444E+02    2.337E+02
    54     2.160E+04    2.713E-01    5.700E-03   -1.223E+02   -3.131E+01
    55     2.200E+04    9.420E-02    1.979E-03    5.018E+01    1.429E+02
    56     2.240E+04    2.087E-01    4.385E-03   -1.342E+02   -3.982E+01
    57     2.280E+04    1.929E-01    4.053E-03   -8.951E-01    9.518E+01
    58     2.320E+04    7.902E-02    1.660E-03    1.550E+02    2.528E+02
    59     2.360E+04    1.671E-01    3.510E-03   -6.158E+00    9.329E+01
    60     2.400E+04    1.439E-01    3.023E-03    8.129E+01    1.824E+02
    61     2.440E+04    6.920E-02    1.454E-03    2.656E+01    1.294E+02
    62     2.480E+04    1.546E-01    3.249E-03    7.539E+01    1.799E+02
    63     2.520E+04    6.950E-02    1.460E-03    8.618E+01    1.924E+02
    64     2.560E+04    1.086E-01    2.283E-03    8.221E+01    1.901E+02
    65     2.600E+04    7.926E-02    1.665E-03    1.116E+02    2.212E+02
    66     2.640E+04    8.082E-02    1.698E-03    9.586E+01    2.071E+02
    67     2.680E+04    4.889E-02    1.027E-03    1.041E+02    2.170E+02
    68     2.720E+04    3.702E-02    7.779E-04    1.100E+02    2.246E+02
    69     2.760E+04    4.988E-02    1.048E-03    1.259E+02    2.422E+02
    70     2.800E+04    5.476E-02    1.151E-03    9.283E+01    2.108E+02
    71     2.840E+04    1.795E-02    3.772E-04    3.812E+01    1.578E+02
    72     2.880E+04    7.541E-03    1.585E-04   -5.690E+01    6.445E+01
    73     2.920E+04    5.907E-02    1.241E-03    1.299E+02    2.529E+02
    74     2.960E+04    7.364E-02    1.547E-03    1.060E+02    2.307E+02
    75     3.000E+04    5.330E-02    1.120E-03   -1.615E+01    1.103E+02
    76     3.040E+04    5.958E-02    1.252E-03   -3.442E+01    9.368E+01
    77     3.080E+04    8.297E-02    1.743E-03    1.316E+02    2.614E+02
    78     3.120E+04    8.040E-02    1.689E-03    1.382E+02    2.697E+02
    79     3.160E+04    3.712E-02    7.799E-04   -5.688E+01    7.627E+01
    80     3.200E+04    4.658E-02    9.788E-04    1.500E+01    1.498E+02
    81     3.240E+04    5.315E-02    1.117E-03    6.115E+01    1.977E+02
    82     3.280E+04    2.114E-02    4.442E-04   -7.344E+01    6.477E+01
    83     3.320E+04    4.165E-02    8.751E-04    1.691E+02    3.090E+02
    84     3.360E+04    5.216E-02    1.096E-03    1.372E+02    2.787E+02
    85     3.400E+04    1.292E-02    2.714E-04   -8.990E+01    5.337E+01
    86     3.440E+04    1.867E-02    3.923E-04    5.938E+01    2.043E+02
    87     3.480E+04    5.140E-02    1.080E-03    5.448E+01    2.011E+02
    88     3.520E+04    2.508E-02    5.269E-04   -1.980E+01    1.285E+02
    89     3.560E+04    1.842E-02    3.871E-04    6.805E+01    2.181E+02
    90     3.600E+04    4.045E-03    8.500E-05    7.878E+01    2.305E+02
    91     3.640E+04    3.326E-02    6.988E-04   -1.285E+02    2.486E+01
    92     3.680E+04    1.112E-02    2.337E-04    1.156E+02    2.707E+02
    93     3.720E+04    1.932E-02    4.059E-04   -1.354E+02    2.131E+01
    94     3.760E+04    1.081E-02    2.271E-04    1.604E+02    3.188E+02
    95     3.800E+04    2.199E-02    4.621E-04    5.345E+01    2.136E+02
    96     3.840E+04    2.037E-02    4.280E-04    1.321E+02    2.939E+02
    97     3.880E+04    1.959E-02    4.116E-04    6.415E+01    2.276E+02
    98     3.920E+04    1.723E-02    3.619E-04    9.526E+01    2.604E+02
    99     3.960E+04    1.507E-02    3.167E-04    1.285E+02    2.953E+02


     TOTAL HARMONIC DISTORTION =   3.516990E+00 PERCENT

**** 04/21/19 19:01:47 ********* PSpice 9.2 (Mar 2000) ******** ID# 1 ********

 * D:\GIT\MAI\Invertor\Orcad\9_DC_sweep_18-36v_10ohm\test.sch


 ****     FOURIER ANALYSIS                 TEMPERATURE =   27.000 DEG C

 ****     CURRENT STEP                     PARAM EP =   34    


******************************************************************************



FOURIER COMPONENTS OF TRANSIENT RESPONSE V(V_sence)



 DC COMPONENT =  -2.973266E-01

 HARMONIC   FREQUENCY    FOURIER    NORMALIZED    PHASE        NORMALIZED
    NO         (HZ)     COMPONENT    COMPONENT    (DEG)       PHASE (DEG)

     1     4.000E+02    4.762E+01    1.000E+00   -1.700E+00    0.000E+00
     2     8.000E+02    7.963E-02    1.672E-03   -1.311E+02   -1.277E+02
     3     1.200E+03    1.811E-01    3.802E-03   -1.497E+01   -9.873E+00
     4     1.600E+03    7.015E-02    1.473E-03    7.960E+01    8.640E+01
     5     2.000E+03    4.436E-02    9.315E-04    1.693E+02    1.778E+02
     6     2.400E+03    8.337E-02    1.751E-03    3.785E+01    4.805E+01
     7     2.800E+03    5.543E-02    1.164E-03    1.241E+02    1.359E+02
     8     3.200E+03    6.192E-03    1.300E-04    2.457E+01    3.816E+01
     9     3.600E+03    1.361E-02    2.858E-04    1.658E+02    1.811E+02
    10     4.000E+03    1.660E-02    3.486E-04   -1.504E+02   -1.334E+02
    11     4.400E+03    4.764E-02    1.000E-03   -8.889E+01   -7.020E+01
    12     4.800E+03    3.704E-02    7.778E-04   -3.323E+00    1.707E+01
    13     5.200E+03    1.009E-02    2.118E-04   -3.671E+01   -1.462E+01
    14     5.600E+03    2.434E-02    5.112E-04   -6.123E+01   -3.743E+01
    15     6.000E+03    2.109E-02    4.429E-04   -4.411E+01   -1.862E+01
    16     6.400E+03    1.804E-02    3.788E-04   -4.320E+00    2.287E+01
    17     6.800E+03    2.003E-02    4.205E-04   -1.165E+02   -8.760E+01
    18     7.200E+03    5.126E-03    1.076E-04   -1.579E+02   -1.273E+02
    19     7.600E+03    2.310E-02    4.851E-04   -1.008E+02   -6.854E+01
    20     8.000E+03    1.521E-02    3.193E-04   -5.576E+01   -2.177E+01
    21     8.400E+03    1.184E-02    2.486E-04   -5.575E+01   -2.005E+01
    22     8.800E+03    1.431E-02    3.004E-04   -3.501E+01    2.380E+00
    23     9.200E+03    1.689E-02    3.547E-04   -1.423E+02   -1.032E+02
    24     9.600E+03    3.436E-02    7.215E-04   -1.026E+02   -6.181E+01
    25     1.000E+04    2.163E-02    4.542E-04   -1.307E+01    2.942E+01
    26     1.040E+04    5.937E-03    1.247E-04    9.948E+01    1.437E+02
    27     1.080E+04    1.693E-02    3.556E-04    1.634E+02    2.093E+02
    28     1.120E+04    2.602E-02    5.464E-04   -5.985E+01   -1.226E+01
    29     1.160E+04    6.851E-03    1.439E-04   -6.204E+01   -1.275E+01
    30     1.200E+04    1.359E-02    2.853E-04   -8.919E+01   -3.821E+01
    31     1.240E+04    1.260E-02    2.646E-04   -7.596E+01   -2.327E+01
    32     1.280E+04    4.107E-02    8.625E-04   -1.012E+02   -4.680E+01
    33     1.320E+04    4.818E-02    1.012E-03   -9.438E+01   -3.830E+01
    34     1.360E+04    3.291E-02    6.912E-04    8.523E+01    1.430E+02
    35     1.400E+04    1.303E-01    2.736E-03    8.177E+01    1.413E+02
    36     1.440E+04    1.888E-01    3.965E-03   -9.901E+01   -3.783E+01
    37     1.480E+04    2.978E-01    6.253E-03   -8.786E+01   -2.498E+01
    38     1.520E+04    3.702E-01    7.774E-03    9.266E+01    1.572E+02
    39     1.560E+04    4.961E-01    1.042E-02    8.917E+01    1.555E+02
    40     1.600E+04    6.641E-01    1.395E-02   -8.925E+01   -2.126E+01
    41     1.640E+04    6.594E-01    1.385E-02   -9.965E+01   -2.997E+01
    42     1.680E+04    4.392E-01    9.223E-03    9.528E+01    1.667E+02
    43     1.720E+04    3.572E-01    7.501E-03    8.817E+01    1.613E+02
    44     1.760E+04    2.129E-01    4.470E-03    1.545E+02    2.293E+02
    45     1.800E+04    4.287E-01    9.003E-03    7.119E+01    1.477E+02
    46     1.840E+04    3.497E-01    7.343E-03   -7.326E+01    4.921E+00
    47     1.880E+04    1.724E-01    3.621E-03   -8.659E+01   -6.712E+00
    48     1.920E+04    4.467E-01    9.380E-03   -2.281E+01    5.877E+01
    49     1.960E+04    2.430E-01    5.104E-03   -1.354E+02   -5.214E+01
    50     2.000E+04    2.168E-01    4.553E-03   -6.975E+00    7.800E+01
    51     2.040E+04    1.683E-01    3.535E-03   -1.626E+02   -7.595E+01
    52     2.080E+04    1.369E-01    2.874E-03    1.622E+02    2.506E+02
    53     2.120E+04    2.080E-01    4.368E-03   -1.189E+02   -2.885E+01
    54     2.160E+04    1.844E-01    3.873E-03    1.453E+02    2.371E+02
    55     2.200E+04    3.223E-01    6.768E-03   -1.151E+02   -2.164E+01
    56     2.240E+04    1.085E-01    2.279E-03    4.077E+01    1.359E+02
    57     2.280E+04    2.010E-01    4.220E-03   -1.326E+02   -3.570E+01
    58     2.320E+04    2.023E-01    4.247E-03    1.944E-01    9.877E+01
    59     2.360E+04    7.315E-02    1.536E-03    1.313E+02    2.316E+02
    60     2.400E+04    1.489E-01    3.127E-03    1.160E+00    1.031E+02
    61     2.440E+04    1.473E-01    3.093E-03    8.222E+01    1.859E+02
    62     2.480E+04    8.344E-02    1.752E-03    4.647E+01    1.519E+02
    63     2.520E+04    1.473E-01    3.093E-03    8.613E+01    1.932E+02
    64     2.560E+04    8.311E-02    1.745E-03    9.301E+01    2.018E+02
    65     2.600E+04    1.037E-01    2.177E-03    9.747E+01    2.079E+02
    66     2.640E+04    7.005E-02    1.471E-03    1.041E+02    2.162E+02
    67     2.680E+04    7.373E-02    1.548E-03    1.069E+02    2.208E+02
    68     2.720E+04    4.801E-02    1.008E-03    1.185E+02    2.340E+02
    69     2.760E+04    4.562E-02    9.580E-04    1.043E+02    2.216E+02
    70     2.800E+04    3.030E-02    6.362E-04    9.755E+01    2.165E+02
    71     2.840E+04    3.207E-02    6.734E-04    9.577E+01    2.164E+02
    72     2.880E+04    3.623E-02    7.607E-04    1.124E+02    2.348E+02
    73     2.920E+04    2.982E-02    6.263E-04    9.414E+01    2.182E+02
    74     2.960E+04    3.625E-02    7.612E-04    1.848E+01    1.442E+02
    75     3.000E+04    2.313E-02    4.858E-04    7.696E+01    2.044E+02
    76     3.040E+04    7.306E-02    1.534E-03    1.489E+02    2.780E+02
    77     3.080E+04    2.501E-02    5.251E-04    1.005E+02    2.314E+02
    78     3.120E+04    9.134E-02    1.918E-03   -3.284E+00    1.293E+02
    79     3.160E+04    9.842E-03    2.067E-04    7.941E+01    2.137E+02
    80     3.200E+04    1.090E-01    2.289E-03    1.579E+02    2.939E+02
    81     3.240E+04    2.063E-02    4.333E-04    1.049E+02    2.426E+02
    82     3.280E+04    6.790E-02    1.426E-03   -3.681E+00    1.357E+02
    83     3.320E+04    2.132E-02    4.477E-04    6.607E+01    2.071E+02
    84     3.360E+04    1.514E-02    3.179E-04    3.811E+01    1.809E+02
    85     3.400E+04    1.046E-02    2.197E-04   -1.267E+02    1.774E+01
    86     3.440E+04    6.935E-02    1.456E-03    1.608E+02    3.069E+02
    87     3.480E+04    1.976E-02    4.149E-04    1.357E+02    2.835E+02
    88     3.520E+04    2.240E-02    4.705E-04    2.413E+00    1.520E+02
    89     3.560E+04    4.181E-02    8.781E-04    7.389E+01    2.252E+02
    90     3.600E+04    3.781E-02    7.939E-04    1.765E+01    1.706E+02
    91     3.640E+04    9.390E-03    1.972E-04    8.250E+00    1.629E+02
    92     3.680E+04    1.966E-02    4.129E-04    1.117E+02    2.681E+02
    93     3.720E+04    2.675E-02    5.617E-04   -1.084E+02    4.968E+01
    94     3.760E+04    1.508E-02    3.167E-04   -1.745E+02   -1.474E+01
    95     3.800E+04    3.233E-03    6.790E-05    1.793E+02    3.408E+02
    96     3.840E+04    1.478E-02    3.104E-04   -1.393E+02    2.387E+01
    97     3.880E+04    2.298E-02    4.827E-04    6.283E+01    2.277E+02
    98     3.920E+04    1.585E-02    3.329E-04    1.248E+02    2.914E+02
    99     3.960E+04    1.520E-02    3.193E-04    1.087E+02    2.770E+02


     TOTAL HARMONIC DISTORTION =   3.613167E+00 PERCENT

**** 04/21/19 19:01:47 ********* PSpice 9.2 (Mar 2000) ******** ID# 1 ********

 * D:\GIT\MAI\Invertor\Orcad\9_DC_sweep_18-36v_10ohm\test.sch


 ****     FOURIER ANALYSIS                 TEMPERATURE =   27.000 DEG C

 ****     CURRENT STEP                     PARAM EP =   36    


******************************************************************************



FOURIER COMPONENTS OF TRANSIENT RESPONSE V(V_sence)



 DC COMPONENT =  -3.242571E-01

 HARMONIC   FREQUENCY    FOURIER    NORMALIZED    PHASE        NORMALIZED
    NO         (HZ)     COMPONENT    COMPONENT    (DEG)       PHASE (DEG)

     1     4.000E+02    4.764E+01    1.000E+00   -1.683E+00    0.000E+00
     2     8.000E+02    7.390E-02    1.551E-03   -1.434E+02   -1.401E+02
     3     1.200E+03    1.554E-01    3.263E-03   -1.337E+01   -8.319E+00
     4     1.600E+03    8.333E-02    1.749E-03    6.098E+01    6.771E+01
     5     2.000E+03    3.841E-02    8.062E-04    1.403E+02    1.487E+02
     6     2.400E+03    8.832E-02    1.854E-03    4.680E+01    5.690E+01
     7     2.800E+03    6.649E-02    1.395E-03    1.413E+02    1.531E+02
     8     3.200E+03    7.408E-03    1.555E-04   -3.438E+01   -2.091E+01
     9     3.600E+03    1.913E-02    4.015E-04   -6.959E+01   -5.444E+01
    10     4.000E+03    1.618E-02    3.397E-04   -3.618E+01   -1.935E+01
    11     4.400E+03    3.232E-02    6.785E-04   -9.163E+01   -7.311E+01
    12     4.800E+03    3.311E-02    6.949E-04   -2.245E+01   -2.254E+00
    13     5.200E+03    2.144E-02    4.500E-04   -6.038E+01   -3.850E+01
    14     5.600E+03    1.370E-02    2.875E-04   -5.880E+01   -3.524E+01
    15     6.000E+03    8.568E-03    1.798E-04   -9.244E+01   -6.719E+01
    16     6.400E+03    8.743E-03    1.835E-04   -9.787E+01   -7.094E+01
    17     6.800E+03    2.361E-02    4.956E-04   -1.042E+02   -7.558E+01
    18     7.200E+03    2.051E-02    4.305E-04   -1.038E+02   -7.348E+01
    19     7.600E+03    2.490E-02    5.226E-04   -1.071E+02   -7.512E+01
    20     8.000E+03    1.138E-02    2.388E-04   -6.474E+01   -3.108E+01
    21     8.400E+03    1.676E-02    3.518E-04   -6.021E+01   -2.486E+01
    22     8.800E+03    4.724E-03    9.915E-05    1.591E+02    1.961E+02
    23     9.200E+03    3.295E-02    6.917E-04   -1.402E+02   -1.015E+02
    24     9.600E+03    1.052E-02    2.207E-04   -1.511E+02   -1.107E+02
    25     1.000E+04    1.383E-02    2.902E-04   -1.241E+02   -8.197E+01
    26     1.040E+04    9.347E-03    1.962E-04    5.280E+00    4.904E+01
    27     1.080E+04    1.458E-02    3.060E-04   -8.715E+01   -4.170E+01
    28     1.120E+04    7.684E-03    1.613E-04   -4.108E+01    6.043E+00
    29     1.160E+04    7.431E-03    1.560E-04    1.612E+02    2.100E+02
    30     1.200E+04    1.048E-02    2.199E-04   -6.118E+01   -1.068E+01
    31     1.240E+04    2.162E-02    4.537E-04   -1.364E+02   -8.424E+01
    32     1.280E+04    1.781E-02    3.738E-04   -1.037E+02   -4.980E+01
    33     1.320E+04    2.279E-02    4.783E-04   -7.674E+01   -2.120E+01
    34     1.360E+04    2.493E-02    5.233E-04   -5.675E+01    4.797E-01
    35     1.400E+04    2.265E-02    4.753E-04   -2.499E+01    3.392E+01
    36     1.440E+04    6.488E-02    1.362E-03    5.160E+01    1.122E+02
    37     1.480E+04    1.767E-01    3.709E-03   -9.255E+01   -3.027E+01
    38     1.520E+04    1.865E-01    3.915E-03   -1.208E+02   -5.686E+01
    39     1.560E+04    4.117E-01    8.641E-03    8.432E+01    1.500E+02
    40     1.600E+04    3.416E-01    7.169E-03    5.956E+01    1.269E+02
    41     1.640E+04    7.694E-01    1.615E-02   -9.994E+01   -3.093E+01
    42     1.680E+04    6.225E-01    1.307E-02   -1.126E+02   -4.193E+01
    43     1.720E+04    5.771E-01    1.211E-02    7.757E+01    1.499E+02
    44     1.760E+04    3.754E-01    7.880E-03    8.641E+01    1.605E+02
    45     1.800E+04    3.572E-01    7.498E-03    1.613E+02    2.370E+02
    46     1.840E+04    4.234E-01    8.888E-03    3.383E+01    1.113E+02
    47     1.880E+04    3.135E-01    6.581E-03   -9.148E+01   -1.237E+01
    48     1.920E+04    1.252E-01    2.629E-03   -3.253E+01    4.826E+01
    49     1.960E+04    4.891E-01    1.026E-02   -3.896E+01    4.352E+01
    50     2.000E+04    1.449E-01    3.041E-03    1.595E+02    2.436E+02
    51     2.040E+04    2.181E-01    4.579E-03   -5.213E+01    3.371E+01
    52     2.080E+04    1.416E-01    2.972E-03    1.766E+02    2.641E+02
    53     2.120E+04    1.149E-01    2.411E-03   -1.739E+02   -8.467E+01
    54     2.160E+04    2.781E-01    5.838E-03   -1.316E+02   -4.067E+01
    55     2.200E+04    2.992E-02    6.280E-04    3.793E+01    1.305E+02
    56     2.240E+04    2.988E-01    6.272E-03   -1.395E+02   -4.521E+01
    57     2.280E+04    2.286E-01    4.797E-03   -1.986E+01    7.607E+01
    58     2.320E+04    1.298E-01    2.725E-03    1.700E+02    2.676E+02
    59     2.360E+04    2.173E-01    4.562E-03   -2.470E+01    7.461E+01
    60     2.400E+04    1.807E-01    3.793E-03    8.745E+01    1.884E+02
    61     2.440E+04    6.907E-02    1.450E-03    3.878E+00    1.065E+02
    62     2.480E+04    1.960E-01    4.114E-03    7.747E+01    1.818E+02
    63     2.520E+04    8.836E-02    1.855E-03    1.050E+02    2.111E+02
    64     2.560E+04    1.416E-01    2.971E-03    9.118E+01    1.989E+02
    65     2.600E+04    9.667E-02    2.029E-03    1.222E+02    2.316E+02
    66     2.640E+04    8.982E-02    1.885E-03    1.087E+02    2.198E+02
    67     2.680E+04    6.438E-02    1.351E-03    1.311E+02    2.439E+02
    68     2.720E+04    5.901E-02    1.239E-03    1.101E+02    2.246E+02
    69     2.760E+04    3.957E-02    8.305E-04    1.235E+02    2.396E+02
    70     2.800E+04    4.181E-02    8.775E-04    9.540E+01    2.132E+02
    71     2.840E+04    3.390E-02    7.116E-04    1.106E+02    2.301E+02
    72     2.880E+04    3.699E-02    7.765E-04    8.824E+01    2.094E+02
    73     2.920E+04    2.989E-02    6.273E-04    1.074E+02    2.302E+02
    74     2.960E+04    3.364E-02    7.060E-04    9.814E+01    2.227E+02
    75     3.000E+04    2.467E-02    5.178E-04    9.782E+01    2.241E+02
    76     3.040E+04    1.344E-02    2.822E-04    5.169E+01    1.796E+02
    77     3.080E+04    2.919E-02    6.127E-04    1.365E+02    2.661E+02
    78     3.120E+04    5.857E-02    1.229E-03    1.200E+02    2.512E+02
    79     3.160E+04    2.832E-02    5.944E-04    3.066E+01    1.636E+02
    80     3.200E+04    6.583E-02    1.382E-03   -3.925E+01    9.540E+01
    81     3.240E+04    4.698E-02    9.860E-04    1.553E+02    2.917E+02
    82     3.280E+04    1.082E-01    2.270E-03    1.314E+02    2.694E+02
    83     3.320E+04    1.967E-02    4.128E-04   -9.873E+00    1.298E+02
    84     3.360E+04    7.488E-02    1.572E-03   -3.011E+01    1.113E+02
    85     3.400E+04    4.317E-02    9.061E-04    6.921E+01    2.123E+02
    86     3.440E+04    2.547E-02    5.345E-04    1.452E+02    2.900E+02
    87     3.480E+04    4.542E-02    9.533E-04   -1.509E+02   -4.470E+00
    88     3.520E+04    4.584E-02    9.621E-04    1.333E+02    2.814E+02
    89     3.560E+04    1.339E-02    2.811E-04    9.392E+01    2.437E+02
    90     3.600E+04    9.099E-03    1.910E-04   -1.919E+01    1.323E+02
    91     3.640E+04    5.848E-02    1.228E-03    5.204E+01    2.052E+02
    92     3.680E+04    1.810E-02    3.799E-04    2.921E+01    1.841E+02
    93     3.720E+04    9.052E-03    1.900E-04    1.741E+02    3.307E+02
    94     3.760E+04    1.615E-02    3.390E-04    2.861E+01    1.868E+02
    95     3.800E+04    3.083E-02    6.471E-04   -1.490E+02    1.089E+01
    96     3.840E+04    8.023E-03    1.684E-04   -1.109E+02    5.070E+01
    97     3.880E+04    5.488E-03    1.152E-04   -3.180E+01    1.315E+02
    98     3.920E+04    1.977E-02    4.151E-04    1.460E+02    3.110E+02
    99     3.960E+04    7.400E-03    1.553E-04    3.593E+01    2.026E+02


     TOTAL HARMONIC DISTORTION =   3.692686E+00 PERCENT


          JOB CONCLUDED

          TOTAL JOB TIME           85.60
