
**** 02/11/19 19:26:49 ********* PSpice 9.2 (Mar 2000) ******** ID# 1 ********

 * C:\Program Files\Orcad\work\Magistr2\1STK.sch


 ****     CIRCUIT DESCRIPTION


******************************************************************************




* Schematics Version 9.2
* Mon Feb 11 19:26:49 2019



** Analysis setup **
.tran 0ns 200us 0 1.57u SKIPBP
.OPTIONS ABSTOL=1uA
.OPTIONS ITL4=60
.LIB "C:\Program Files\Orcad\work\Magistr2\1STK.lib"


* From [PSPICE NETLIST] section of C:\Program Files\Orcad\PSpice\PSpice.ini:
.lib "nom.lib"

.INC "1STK.net"



**** INCLUDING 1STK.net ****
* Schematics Netlist *



M_M1         $N_0003 $N_0002 $N_0001 $N_0001 IRF255
D_D1         $N_0001 $N_0003 Dbreak-X 
D_D3         0 $N_0001 Dbreak-X 
M_M2         $N_0001 $N_0004 0 0 IRF255
E_E1         $N_0005 $N_0001 aa 0 1
E_E2         $N_0006 0 bb 0 1
E_E3         $N_0007 $N_0008 bb 0 1
D_D4         $N_0008 $N_0003 Dbreak-X 
M_M3         $N_0003 $N_0009 $N_0008 $N_0008 IRF255
R_R1         $N_0002 $N_0005  10  
R_R2         $N_0004 $N_0006  10  
R_R3         $N_0009 $N_0007  10  
R_R4         $N_0011 $N_0010  10  
V_V1         $N_0003 0 18
M_M4         $N_0008 $N_0011 0 0 IRF255
E_E4         $N_0010 0 aa 0 1
D_D5         0 $N_0008 Dbreak-X 
R_R6         0 $N_0012  33  
L_L2         0 $N_0012  5H  
Kn_K2         L_L3 L_L4     1
Kn_K1         L_L1 L_L2     1
L_L1         $N_0001 $N_0013  5uH  
L_L3         $N_0014 $N_0013  1mH  
L_L4         0 $N_0015  12mH  
L_L5         $N_0008 $N_0014  50uH  
R_R5         $N_0015 0  10  
V_V2         aa 0  
+PULSE 0 15 0 0.1u 0.1u 9u 20u
V_V3         bb 0  
+PULSE 0 15 10u 0.1u 0.1u 9u 20u
C_C1         $N_0015 0  5u  

**** RESUMING 1STK.cir ****
.PROBE V(*) I(*) W(*) D(*) NOISE(*) 


.END

**** 02/11/19 19:26:49 ********* PSpice 9.2 (Mar 2000) ******** ID# 1 ********

 * C:\Program Files\Orcad\work\Magistr2\1STK.sch


 ****     Diode MODEL PARAMETERS


******************************************************************************




               Dbreak-X        
          IS  100.000000E-12 
          RS     .05         
         CJO  150.000000E-12 


**** 02/11/19 19:26:49 ********* PSpice 9.2 (Mar 2000) ******** ID# 1 ********

 * C:\Program Files\Orcad\work\Magistr2\1STK.sch


 ****     MOSFET MODEL PARAMETERS


******************************************************************************




               IRF255          
               NMOS            
       LEVEL    3            
           L    2.000000E-06 
           W   28            
         VTO    3.686        
          KP    1.040000E-06 
       GAMMA    0            
         PHI     .6          
      LAMBDA    0            
          RD    1.000000E-03 
          RS     .01         
          RG    7.008        
          RB    6.906000E-03 
         RDS    1.000000E+06 
          IS  562.200000E-09 
          JS    0            
           N    1.833        
          PB    2.532        
        PBSW    2.532        
         CBD    5.886000E-09 
          CJ    0            
        CJSW    0            
          MJ    1.089        
        CGSO   43.180000E-12 
        CGDO    7.890000E-12 
        CGBO    0            
         TOX    2.000000E-06 
          XJ    0            
       UCRIT   10.000000E+03 
       DELTA    0            
         ETA    0            
      DIOMOD    1            
         VFB    0            
        LETA    0            
        WETA    0            
          U0    0            
        TEMP    0            
         VDD    0            
       XPART    0            



          JOB CONCLUDED

          TOTAL JOB TIME             .56
