
**** 04/08/19 18:01:21 ********* PSpice 9.2 (Mar 2000) ******** ID# 1 ********

 * D:\GIT\MAI\Invertor\Orcad\5_full1\1STK.sch


 ****     CIRCUIT DESCRIPTION


******************************************************************************




* Schematics Version 9.2
* Mon Apr 08 18:01:21 2019



** Analysis setup **
.tran 0ns 10m 0 1.57u SKIPBP
.OPTIONS ABSTOL=1uA
.OPTIONS ITL4=60
.LIB "D:\GIT\MAI\Invertor\Orcad\5_full1\1STK.lib"


* From [PSPICE NETLIST] section of d:\Program Files\Orcad\PSpice\PSpice.ini:
.lib "D:\Program Files\Orcad\PSpice\UserLib\OPA_2.lib"
.lib "D:\Program Files\Orcad\PSpice\UserLib\MyLib.lib"
.lib "nom.lib"

.INC "1STK.net"



**** INCLUDING 1STK.net ****
* Schematics Netlist *



V_V1         $N_0001 0 18
Kn_K1         L_L1 L_L2     1
M_M1         $N_0001 $N_0003 $N_0002 $N_0002 IRF255
M_M2         $N_0002 $N_0004 0 0 IRF255
Kn_K2         L_L3 L_L4     1
M_M3         $N_0001 $N_0006 $N_0005 $N_0005 IRF255
M_M4         $N_0005 $N_0007 0 0 IRF255
R_R7         $N_0009 $N_0008  5k  
R_R8         $N_0008 $N_0010  100k  
R_R9         $N_0012 $N_0011  1k  
R_R10         $N_0011 $N_0013  100k  
C_C2         $N_0014 0  100p  
E_LIMIT1         $N_0012 0 VALUE {LIMIT(V($N_0010),-1,1)}
D_D1         $N_0002 $N_0001 Dbreak-X 
L_L3         $N_0015 $N_0016  1mH  
L_L1         $N_0002 $N_0015  5uH  
L_L5         $N_0016 $N_0005  50uH  
D_D4         $N_0005 $N_0001 Dbreak-X 
D_D5         0 $N_0005 Dbreak-X 
R_R5         $N_0017 0  0.1  
D_D3         0 $N_0002 Dbreak-X 
R_R16         $N_0013 $N_0018  10k  
C_C3         $N_0018 0  100p  
R_R12         $N_0019 +15  10k  
R_R13         0 $N_0019  10k  
R_R17         $N_0020 0  10k  
R_R15         -15 $N_0020  10k  
X_U1A         0 $N_0008 +15 -15 $N_0010 TL082
R_R4         $N_0007 $N_0021  10  
R_R3         $N_0006 $N_0022  10  
R_R18         0 bb  10k  
R_R19         0 aa  10k  
E_E2         $N_0023 0 bb 0 1
E_E1         $N_0024 $N_0002 aa 0 1
E_E3         $N_0022 $N_0005 bb 0 1
E_E4         $N_0021 0 aa 0 1
C_C1         $N_0017 0  5u  
R_R1         $N_0003 $N_0024  10  
R_R2         $N_0004 $N_0023  10  
V_V7         -15 0 -15
V_V6         +15 0 15
V_V5         $N_0009 0  
+SIN 0 5 400 0 0 0
X_U2A         $N_0011 $N_0014 +15 -15 $N_0013 TL082
R_R11         I_sence $N_0014  1k  
R_R6         0 I_sence  33  
L_L4         $N_0017 0  12m  
L_L2         0 I_sence  5  
X_U3A         $N_0018 $N_0019 +15 -15 bb TL082
X_U4A         $N_0020 $N_0018 +15 -15 aa TL082

**** RESUMING 1STK.cir ****
.PROBE V(*) I(*) W(*) D(*) NOISE(*) 


.END

WARNING -- Unable to find library file 
Making new index file 1STK.ind for library file 1STK.lib
Index has 1 entries from 1 file(s).

**** 04/08/19 18:01:21 ********* PSpice 9.2 (Mar 2000) ******** ID# 1 ********

 * D:\GIT\MAI\Invertor\Orcad\5_full1\1STK.sch


 ****     Diode MODEL PARAMETERS


******************************************************************************




               Dbreak-X        X_U1A.dx        X_U1A.dy        X_U2A.dx        
          IS  100.000000E-12  800.000000E-18  800.000000E-18  800.000000E-18 
          RS     .05            1               1.000000E-03    1            
         CJO  150.000000E-12                   10.000000E-12                 


               X_U2A.dy        X_U3A.dx        X_U3A.dy        X_U4A.dx        
          IS  800.000000E-18  800.000000E-18  800.000000E-18  800.000000E-18 
          RS    1.000000E-03    1               1.000000E-03    1            
         CJO   10.000000E-12                   10.000000E-12                 


               X_U4A.dy        
          IS  800.000000E-18 
          RS    1.000000E-03 
         CJO   10.000000E-12 


**** 04/08/19 18:01:21 ********* PSpice 9.2 (Mar 2000) ******** ID# 1 ********

 * D:\GIT\MAI\Invertor\Orcad\5_full1\1STK.sch


 ****     Junction FET MODEL PARAMETERS


******************************************************************************




               X_U1A.jx        X_U2A.jx        X_U3A.jx        X_U4A.jx        
               NJF             NJF             NJF             NJF             
         VTO   -1              -1              -1              -1            
        BETA  984.200000E-06  984.200000E-06  984.200000E-06  984.200000E-06 
          IS    2.500000E-12    2.500000E-12    2.500000E-12    2.500000E-12 


**** 04/08/19 18:01:21 ********* PSpice 9.2 (Mar 2000) ******** ID# 1 ********

 * D:\GIT\MAI\Invertor\Orcad\5_full1\1STK.sch


 ****     MOSFET MODEL PARAMETERS


******************************************************************************




               IRF255          
               NMOS            
       LEVEL    3            
           L    2.000000E-06 
           W   28            
         VTO    3.686        
          KP    1.040000E-06 
       GAMMA    0            
         PHI     .6          
      LAMBDA    0            
          RD    1.000000E-03 
          RS     .01         
          RG    7.008        
          RB    6.906000E-03 
         RDS    1.000000E+06 
          IS  562.200000E-09 
          JS    0            
           N    1.833        
          PB    2.532        
        PBSW    2.532        
         CBD    5.886000E-09 
          CJ    0            
        CJSW    0            
          MJ    1.089        
        CGSO   43.180000E-12 
        CGDO    7.890000E-12 
        CGBO    0            
         TOX    2.000000E-06 
          XJ    0            
       UCRIT   10.000000E+03 
       DELTA    0            
         ETA    0            
      DIOMOD    1            
         VFB    0            
        LETA    0            
        WETA    0            
          U0    0            
        TEMP    0            
         VDD    0            
       XPART    0            



          JOB CONCLUDED

          TOTAL JOB TIME            4.87
