
**** 02/18/19 18:54:18 ********* PSpice 9.2 (Mar 2000) ******** ID# 1 ********

 * C:\Workspace_git\Magistr\Shevtsov\Invertor\Orcad\3_Limit\Limit.sch


 ****     CIRCUIT DESCRIPTION


******************************************************************************




* Schematics Version 9.2
* Mon Feb 18 18:54:14 2019



** Analysis setup **
.tran 0ns 60m 0 1.57u SKIPBP
.LIB "C:\Workspace_git\Magistr\Shevtsov\Invertor\Orcad\2_Sinus_generator\Sinus_generator.lib"


* From [PSPICE NETLIST] section of C:\Program Files\Orcad\PSpice\PSpice.ini:
.lib "nom.lib"

.INC "Limit.net"



**** INCLUDING Limit.net ****
* Schematics Netlist *



V_V2         -15 0 -15V
V_V1         +15 0 15V
R_R6         $N_0002 $N_0001  10k  
X_U5A         $N_0003 $N_0004 +15 -15 $N_0004 TL082
X_U6A         0 $N_0002 +15 -15 $N_0001 TL082
R_R7         $N_0002 $N_0004  10k  
D_D4         $N_0005 $N_0006 D1N4151 
D_D5         $N_0007 $N_0005 D1N4151 
X_U3A         $N_0004 $N_0005 +15 -15 $N_0006 TL082
X_U4A         $N_0001 $N_0005 +15 -15 $N_0007 TL082
V_V4         $N_0008 0  
+SIN 0 10 400 0 0 0
R_R8         $N_0008 $N_0005  10k  
E_LIMIT1         $N_0009 0 VALUE {LIMIT(V($N_0008),-1,1)}
R_R9         0 $N_0009  10k  
V_V3         $N_0003 0 1

**** RESUMING Limit.cir ****
.PROBE V(*) I(*) W(*) D(*) NOISE(*) 


.END

**** 02/18/19 18:54:18 ********* PSpice 9.2 (Mar 2000) ******** ID# 1 ********

 * C:\Workspace_git\Magistr\Shevtsov\Invertor\Orcad\3_Limit\Limit.sch


 ****     Diode MODEL PARAMETERS


******************************************************************************




               D1N4151         X_U5A.dx        X_U5A.dy        X_U6A.dx        
          IS    2.200000E-09  800.000000E-18  800.000000E-18  800.000000E-18 
           N    1.768                                                        
         ISR    7.832000E-09                                                 
         IKF    8.512000E-03                                                 
          BV   75                                                            
         IBV    5.000000E-06                                                 
          RS     .5927          1               1.000000E-03    1            
          TT    5.771000E-09                                                 
         CJO    1.725000E-12                   10.000000E-12                 
          VJ     .5                                                          
           M     .08882                                                      


               X_U6A.dy        X_U3A.dx        X_U3A.dy        X_U4A.dx        
          IS  800.000000E-18  800.000000E-18  800.000000E-18  800.000000E-18 
          RS    1.000000E-03    1               1.000000E-03    1            
         CJO   10.000000E-12                   10.000000E-12                 


               X_U4A.dy        
          IS  800.000000E-18 
          RS    1.000000E-03 
         CJO   10.000000E-12 


**** 02/18/19 18:54:18 ********* PSpice 9.2 (Mar 2000) ******** ID# 1 ********

 * C:\Workspace_git\Magistr\Shevtsov\Invertor\Orcad\3_Limit\Limit.sch


 ****     Junction FET MODEL PARAMETERS


******************************************************************************




               X_U5A.jx        X_U6A.jx        X_U3A.jx        X_U4A.jx        
               NJF             NJF             NJF             NJF             
         VTO   -1              -1              -1              -1            
        BETA  984.200000E-06  984.200000E-06  984.200000E-06  984.200000E-06 
          IS    2.500000E-12    2.500000E-12    2.500000E-12    2.500000E-12 



          JOB CONCLUDED

          TOTAL JOB TIME           37.31
