
**** 03/11/19 18:55:32 ********* PSpice 9.2 (Mar 2000) ******** ID# 1 ********

 * D:\GIT\MAI\Invertor\Orcad\16_Driver_with_pervi4ka\Schematic2.sch


 ****     CIRCUIT DESCRIPTION


******************************************************************************




* Schematics Version 9.2
* Mon Mar 11 18:55:31 2019



** Analysis setup **
.tran 0ns 200u 0 0.1u SKIPBP
.LIB "D:\GIT\MAI\Invertor\Orcad\15_Driver_with_stab\Schematic2.lib"


* From [PSPICE NETLIST] section of d:\Program Files\Orcad\PSpice\PSpice.ini:
.lib "D:\Program Files\Orcad\PSpice\UserLib\OPA_2.lib"
.lib "D:\Program Files\Orcad\PSpice\UserLib\MyLib.lib"
.lib "nom.lib"

.INC "Schematic2.net"



**** INCLUDING Schematic2.net ****
* Schematics Netlist *



R_R9         aa $N_0001  10k  
R_R10         $N_0003 $N_0002  3k  
R_R11         $N_0005 $N_0004  3k  
R_R13         0 $N_0005  470  
R_R6         0 $N_0001  1k  
Q_Q1         $N_0006 $N_0001 0 Q2N4014
Q_Q4         $N_0007 $N_0006 0 Q2N4014
Q_Q10         0 $N_0007 $N_0003 Q2N3505
Q_Q6         $N_0008 $N_0005 0 Q2N4014
M_M7         $N_0009 $N_0008 0 0 IRFF110
M_M6         $N_0009 $N_0010 $N_0011 $N_0011 IRFF9110
Q_Q5         $N_0011 $N_0007 $N_0004 Q2N4014
R_R12         $N_0002 $N_0011  470  
R_R7         $N_0006 $N_0011  10k  
V_V4         $N_0011 0 15
Q_Q9         $N_0010 $N_0002 $N_0011 Q2N3505
R_R14         $N_0008 $N_0010  100  
L_L1         $N_0009 $N_0012  10m  
R_R15         bb $N_0013  10k  
R_R16         $N_0015 $N_0014  3k  
R_R17         $N_0017 $N_0016  3k  
R_R18         0 $N_0017  470  
R_R19         0 $N_0013  1k  
Q_Q11         $N_0018 $N_0013 0 Q2N4014
Q_Q12         $N_0019 $N_0018 0 Q2N4014
Q_Q13         0 $N_0019 $N_0015 Q2N3505
Q_Q14         $N_0020 $N_0017 0 Q2N4014
M_M8         $N_0012 $N_0020 0 0 IRFF110
M_M9         $N_0012 $N_0021 $N_0022 $N_0022 IRFF9110
Q_Q15         $N_0022 $N_0019 $N_0016 Q2N4014
R_R20         $N_0014 $N_0022  470  
R_R21         $N_0019 $N_0022  1k  
R_R22         $N_0018 $N_0022  10k  
V_V5         $N_0022 0 15
Q_Q16         $N_0021 $N_0014 $N_0022 Q2N3505
R_R23         $N_0020 $N_0021  100  
D_D6         $N_0023 $N_0024 Dbreak 
D_D7         $N_0023 $N_0025 Dbreak 
D_D3         $N_0025 $N_0026 D1N4151 
D_D1         $N_0024 $N_0026 D1N4151 
M_M1         $N_0027 $N_0024 $N_0025 $N_0025 IRFF110
R_R2         $N_0024 $N_0028  22  
R_R4         0 $N_0023  100  
M_M2         $N_0028 $N_0027 $N_0023 $N_0023 IRFF110
R_R3         $N_0023 $N_0028  1k  
R_R5         $N_0027 $N_0026  1k  
C_C1         $N_0023 $N_0026  22n  
V_V2         $N_0029 0 50
M_M3         $N_0029 $N_0028 $N_0023 $N_0023 IRF225
D_D8         $N_0030 $N_0031 Dbreak 
D_D9         $N_0030 $N_0032 Dbreak 
D_D10         $N_0032 $N_0033 D1N4151 
D_D11         $N_0031 $N_0033 D1N4151 
M_M10         $N_0034 $N_0031 $N_0032 $N_0032 IRFF110
R_R24         $N_0031 $N_0035  22  
R_R25         0 $N_0030  100  
M_M11         $N_0035 $N_0034 $N_0030 $N_0030 IRFF110
R_R26         $N_0030 $N_0035  1k  
R_R27         $N_0034 $N_0033  1k  
C_C2         $N_0030 $N_0033  22n  
V_V6         $N_0036 0 50
M_M12         $N_0036 $N_0035 $N_0030 $N_0030 IRF225
L_L3         $N_0032 $N_0031  10m  
V_V1         aa 0  
+PULSE -15 15 0 100n 100n 20u 50u
V_V3         bb 0  
+PULSE -15 15 25u 100n 100n 20u 50u
R_R8         $N_0007 $N_0011  3k  
L_L2         $N_0024 $N_0025  10m  
Kn_K1         L_L1 L_L2 
+ L_L3    0.999

**** RESUMING Schematic2.cir ****
.PROBE V(*) I(*) W(*) D(*) NOISE(*) 


.END

**** 03/11/19 18:55:32 ********* PSpice 9.2 (Mar 2000) ******** ID# 1 ********

 * D:\GIT\MAI\Invertor\Orcad\16_Driver_with_pervi4ka\Schematic2.sch


 ****     Diode MODEL PARAMETERS


******************************************************************************




               Dbreak          D1N4151         
          IS  100.000000E-12    2.200000E-09 
           N                    1.768        
         ISR                    7.832000E-09 
         IKF                    8.512000E-03 
          BV   15              75            
         IBV                    5.000000E-06 
          RS     .1              .5927       
          TT                    5.771000E-09 
         CJO   50.000000E-12    1.725000E-12 
          VJ                     .5          
           M                     .08882      


**** 03/11/19 18:55:32 ********* PSpice 9.2 (Mar 2000) ******** ID# 1 ********

 * D:\GIT\MAI\Invertor\Orcad\16_Driver_with_pervi4ka\Schematic2.sch


 ****     BJT MODEL PARAMETERS


******************************************************************************




               Q2N4014         Q2N3505         
               NPN             PNP             
          IS    1.608000E-12  650.600000E-18 
          BF  169             231.7          
          NF    1               1            
         VAF  100             115.7          
         IKF     .9625          1.079        
         ISE    1.608000E-12   54.810000E-15 
          NE    1.29            1.829        
          BR     .01918         3.563        
          NR    1               1            
          RB   10              10            
          RC     .6              .715        
         CJE   52.800000E-12   19.820000E-12 
         MJE     .4351           .3357       
         CJC    9.293000E-12   14.760000E-12 
         MJC     .256            .5383       
          TF  300.500000E-12  603.700000E-12 
         XTF    1.5             1.7          
         VTF    6               5            
         ITF     .45             .65         
          TR    3.850000E-06  111.300000E-09 
         XTB    1.5             1.5          
          CN    2.42            2.2          
           D     .87             .52         


**** 03/11/19 18:55:32 ********* PSpice 9.2 (Mar 2000) ******** ID# 1 ********

 * D:\GIT\MAI\Invertor\Orcad\16_Driver_with_pervi4ka\Schematic2.sch


 ****     MOSFET MODEL PARAMETERS


******************************************************************************




               IRFF110         IRFF9110        IRF225          
               NMOS            PMOS            NMOS            
       LEVEL    3               3               3            
           L    2.000000E-06    2.000000E-06    2.000000E-06 
           W     .49             .21             .2          
         VTO    3.694          -3.901           3.803        
          KP   20.820000E-06   10.230000E-06   20.120000E-06 
       GAMMA    0               0               0            
         PHI     .6              .6              .6          
      LAMBDA    0               0               0            
          RD     .04147          .3715           .7773       
          RS     .4238           .4525           .08255      
          RG    4.2            11.53            2.916        
         RDS  444.400000E+03  444.400000E+03    1.111000E+06 
          IS  305.400000E-15   13.890000E-15  311.400000E-12 
          JS    0               0               0            
           N                    4                            
          PB     .8              .8              .8          
        PBSW     .8              .8              .8          
         CBD  377.800000E-12  324.900000E-12  514.400000E-12 
          CJ    0               0               0            
        CJSW    0               0               0            
          TT  370.000000E-09    2.500000E-06  350.000000E-09 
        CGSO  739.400000E-12    2.397000E-09    3.913000E-09 
        CGDO   82.140000E-12  306.400000E-12  354.300000E-12 
        CGBO    0               0               0            
         TOX  100.000000E-09  100.000000E-09  100.000000E-09 
          XJ    0               0               0            
          UO                  300                            
       UCRIT   10.000000E+03   10.000000E+03   10.000000E+03 
       DELTA    0               0               0            
         ETA    0               0               0            
      DIOMOD    1               1               1            
         VFB    0               0               0            
        LETA    0               0               0            
        WETA    0               0               0            
          U0    0               0               0            
        TEMP    0               0               0            
         VDD    0               0               0            
       XPART    0               0               0            



          JOB CONCLUDED

          TOTAL JOB TIME            1.40
